<?xml version="1.0" encoding="UTF-8"?>

<!-- generated on 2023-03-18 15:29:27 by Eclipse SUMO netedit Version 1.14.1
-->

<additional xmlns:xsi="http://www.w3.org/2001/XMLSchema-instance" xsi:noNamespaceSchemaLocation="http://sumo.dlr.de/xsd/additional_file.xsd">
    <!-- Detectors -->
    <e1Detector id="19400" lane="294294299#8_0" pos="40.16" period="3600.00" file="19400.out.xml"/>
    <e1Detector id="19400_2" lane="294294299#8_1" pos="40.16" period="3600.00" file="19400.out.xml"/>
    <e1Detector id="19400_3" lane="294294299#8_2" pos="40.16" period="3600.00" file="19400.out.xml"/>
    <e1Detector id="226691I" lane="-11742233#8_0" pos="150.05" period="3600.00" file="226691I.out.xml"/>
    <e1Detector id="226691O" lane="11742233#0_0" pos="101.01" period="3600.00" file="226691O.out.xml"/>
    <e1Detector id="229270" lane="11956950#0_0" pos="93.47" period="3600.00" file="229270.out.xml"/>
    <e1Detector id="250229I" lane="121054524#0_0" pos="109.93" period="3600.00" file="250229I.out.xml"/>
    <e1Detector id="255368I" lane="-24850351#4_0" pos="127.77" period="3600.00" file="255368I.out.xml"/>
    <e1Detector id="255368O" lane="24850351#0_0" pos="70.97" period="3600.00" file="255368O.out.xml"/>
    <e1Detector id="260073I" lane="11957732_0" pos="228.46" period="3600.00" file="260073I.out.xml"/>
    <e1Detector id="260073O" lane="-11957732_0" pos="32.23" period="3600.00" file="260073O.out.xml"/>
    <e1Detector id="269038" lane="835563573#0_0" pos="59.33" period="3600.00" file="269038.out.xml"/>
    <e1Detector id="270733" lane="11833510#6.169_0" pos="7.12" period="3600.00" file="270733.out.xml"/>
    <e1Detector id="27414I" lane="-11826990#3_0" pos="47.90" period="3600.00" file="27414I.out.xml"/>
    <e1Detector id="27414O" lane="11826990#3_0" pos="19.79" period="3600.00" file="27414O.out.xml"/>
    <e1Detector id="27415MI" lane="-966308107#4.550_0" pos="6.54" period="3600.00" file="27415MI.out.xml"/>
    <e1Detector id="27415MO" lane="11960711#0.74_0" pos="53.18" period="3600.00" file="27415MO.out.xml"/>
    <e1Detector id="27431MI" lane="-346964424#2_0" pos="42.64" period="3600.00" file="27431MI.out.xml"/>
    <e1Detector id="27431MO" lane="346964423#0_0" pos="28.25" period="3600.00" file="27431MO.out.xml"/>
    <e1Detector id="27442I" lane="-11956345_0" pos="43.80" period="3600.00" file="27442I.out.xml"/>
    <e1Detector id="27442O" lane="11956345_0" pos="54.59" period="3600.00" file="27442O.out.xml"/>
    <e1Detector id="27456" lane="11957936#0_0" pos="58.84" period="3600.00" file="27456.out.xml"/>
    <e1Detector id="27504I" lane="1057194119#0_0" pos="129.16" period="3600.00" file="27504I.out.xml"/>
    <e1Detector id="27504O" lane="-1057194119#5_0" pos="109.44" period="3600.00" file="27504O.out.xml"/>
    <e1Detector id="27626I" lane="-1092594708_1" pos="39.25" period="3600.00" file="27626I.out.xml"/>
    <e1Detector id="27626I_2" lane="-1092594708_0" pos="39.25" period="3600.00" file="27626I.out.xml"/>
    <e1Detector id="27626O" lane="317788870#3_0" pos="78.47" period="3600.00" file="27626O.out.xml"/>
    <e1Detector id="27633MI" lane="320948876#7_0" pos="3.39" period="3600.00" file="27633MI.out.xml"/>
    <e1Detector id="27633MO" lane="-320948876#7_0" pos="91.97" period="3600.00" file="27633MO.out.xml"/>
    <e1Detector id="27634" lane="11834237#0_1" pos="100.89" period="3600.00" file="27634.out.xml"/>
    <e1Detector id="27634_2" lane="11834237#0_0" pos="100.89" period="3600.00" file="27634.out.xml"/>
    <e1Detector id="276410" lane="911068791#2_0" pos="58.23" period="3600.00" file="276410.out.xml"/>
    <e1Detector id="27843MI" lane="-911068789#6.171_0" pos="58.54" period="3600.00" file="27843MI.out.xml"/>
    <e1Detector id="27843MO" lane="911068789#0_0" pos="41.69" period="3600.00" file="27843MO.out.xml"/>
    <e1Detector id="280214I" lane="-294921138#2_0" pos="113.15" period="3600.00" file="280214I.out.xml"/>
    <e1Detector id="280214O" lane="11720583_0" pos="52.27" period="3600.00" file="280214O.out.xml"/>
    <e1Detector id="294101I" lane="-11956778#0_0" pos="6.23" period="3600.00" file="294101I.out.xml"/>
    <e1Detector id="294101O" lane="11956778#0_0" pos="94.28" period="3600.00" file="294101O.out.xml"/>
    <e1Detector id="294185I" lane="294921205#0_0" pos="74.83" period="3600.00" file="294185I.out.xml"/>
    <e1Detector id="294185O" lane="-294921205#1_0" pos="70.38" period="3600.00" file="294185O.out.xml"/>
    <e1Detector id="298667I" lane="11825574#0_0" pos="157.07" period="3600.00" file="298667I.out.xml"/>
    <e1Detector id="298667O" lane="-11825574#6_0" pos="93.27" period="3600.00" file="298667O.out.xml"/>
    <e1Detector id="313950MI" lane="1038117874#0_0" pos="26.40" period="3600.00" file="313950MI.out.xml"/>
    <e1Detector id="313950MO" lane="-1038117874#1_1" pos="25.30" period="3600.00" file="313950MO.out.xml"/>
    <e1Detector id="313950MO_2" lane="-1038117874#1_0" pos="25.30" period="3600.00" file="313950MO.out.xml"/>
    <e1Detector id="320842I" lane="-11690285#2_0" pos="57.05" period="3600.00" file="320842I.out.xml"/>
    <e1Detector id="320842O" lane="-868924670_0" pos="57.75" period="3600.00" file="320842O.out.xml"/>
    <e1Detector id="339189I" lane="11833004#0_0" pos="148.92" period="3600.00" file="339189I.out.xml"/>
    <e1Detector id="339189O" lane="-11833004#2_0" pos="101.88" period="3600.00" file="339189O.out.xml"/>
    <e1Detector id="343115I" lane="11809341#0_0" pos="146.75" period="3600.00" file="343115I.out.xml"/>
    <e1Detector id="343115O" lane="-11809341#3_0" pos="99.26" period="3600.00" file="343115O.out.xml"/>
    <e1Detector id="350740I" lane="-392332379_0" pos="21.79" period="3600.00" file="350740I.out.xml"/>
    <e1Detector id="350740O" lane="392332379_0" pos="59.74" period="3600.00" file="350740O.out.xml"/>
    <e1Detector id="359206O" lane="11840126_0" pos="32.29" period="3600.00" file="359206O.out.xml"/>
    <e1Detector id="361240I" lane="11853299#0_0" pos="162.89" period="3600.00" file="361240I.out.xml"/>
    <e1Detector id="361240O" lane="-11853299#3_0" pos="92.76" period="3600.00" file="361240O.out.xml"/>
    <e1Detector id="373944MI" lane="-1035459376#3_0" pos="41.53" period="3600.00" file="373944MI.out.xml"/>
    <e1Detector id="373944MO" lane="1035459376#0_0" pos="126.16" period="3600.00" file="373944MO.out.xml"/>
    <e1Detector id="384798" lane="294921219#0_0" pos="154.85" period="3600.00" file="384798.out.xml"/>
    <e1Detector id="38682" lane="293149229#2_2" pos="61.80" period="3600.00" file="38682.out.xml"/>
    <e1Detector id="38682_2" lane="293149229#2_3" pos="61.80" period="3600.00" file="38682.out.xml"/>
    <e1Detector id="38682_3" lane="293149229#2_1" pos="61.80" period="3600.00" file="38682.out.xml"/>
    <e1Detector id="38682_4" lane="293149229#2_0" pos="61.80" period="3600.00" file="38682.out.xml"/>
    <e1Detector id="50401MI" lane="-1022429029_0" pos="123.63" period="3600.00" file="50401MI.out.xml"/>
    <e1Detector id="50401MO" lane="1022429029_0" pos="39.38" period="3600.00" file="50401MO.out.xml"/>
    <e1Detector id="5990I" lane="24864541_0" pos="95.61" period="3600.00" file="5990I.out.xml"/>
    <e1Detector id="5990I_2" lane="24864541_1" pos="95.61" period="300.00" file="e1_1.xml"/>
    <e1Detector id="5990O" lane="-320455187#3_0" pos="154.21" period="3600.00" file="5990O.out.xml"/>
    <e1Detector id="5990O_2" lane="-320455187#3_1" pos="154.21" period="300.00" file="e1_0.xml"/>
    <e1Detector id="8054I" lane="-625361998#3_1" pos="80.76" period="3600.00" file="8054I.out.xml"/>
    <e1Detector id="8054I_2" lane="-625361998#3_0" pos="80.76" period="3600.00" file="8054I.out.xml"/>
    <e1Detector id="8054O" lane="625361998#3_1" pos="70.92" period="3600.00" file="8054O.out.xml"/>
    <e1Detector id="8054O_2" lane="625361998#3_0" pos="70.92" period="3600.00" file="8054O.out.xml"/>
    <e1Detector id="e1_0O" lane="1124471119_0" pos="359.25" period="3600.00" file="e1_0O.out.xml"/>
    <e1Detector id="e1_10I" lane="-11734068#2_0" pos="100.50" period="3600.00" file="e1_10I.out.xml"/>
    <e1Detector id="e1_10O" lane="11734068#0_0" pos="123.40" period="3600.00" file="e1_10O.out.xml"/>
    <e1Detector id="e1_11I" lane="-313330279#2_0" pos="71.56" period="3600.00" file="e1_11I.out.xml"/>
    <e1Detector id="e1_12I" lane="-62343617#1_0" pos="95.14" period="3600.00" file="e1_12I.out.xml"/>
    <e1Detector id="e1_12O" lane="62343617#0_0" pos="19.38" period="3600.00" file="e1_12O.out.xml"/>
    <e1Detector id="e1_13I" lane="-294921129#2_0" pos="54.89" period="3600.00" file="e1_13I.out.xml"/>
    <e1Detector id="e1_14" lane="867813759#0_0" pos="28.99" period="3600.00" file="e1_14.out.xml"/>
    <e1Detector id="e1_15" lane="911068791#0_0" pos="33.07" period="3600.00" file="e1_15.out.xml"/>
    <e1Detector id="e1_16I" lane="26321030#0_0" pos="78.38" period="3600.00" file="e1_16I.out.xml"/>
    <e1Detector id="e1_16O" lane="-26321030#5_0" pos="31.68" period="3600.00" file="e1_16O.out.xml"/>
    <e1Detector id="e1_18I" lane="11837579#0_0" pos="181.38" period="3600.00" file="e1_18I.out.xml"/>
    <e1Detector id="e1_18O" lane="-11837579#2_0" pos="14.26" period="3600.00" file="e1_18O.out.xml"/>
    <e1Detector id="e1_1I" lane="-E3_0" pos="12.57" period="3600.00" file="e1_1I.out.xml"/>
    <e1Detector id="e1_1O" lane="E3_0" pos="8.96" period="3600.00" file="e1_1O.out.xml"/>
    <e1Detector id="e1_20I" lane="-932572338#1_0" pos="9.99" period="3600.00" file="e1_20I.out.xml"/>
    <e1Detector id="e1_20I_2" lane="-932572338#1_1" pos="9.99" period="300.00" file="e1_0.xml"/>
    <e1Detector id="e1_20O" lane="932572338#0_0" pos="12.61" period="3600.00" file="e1_20O.out.xml"/>
    <e1Detector id="e1_20O_2" lane="932572338#0_1" pos="12.61" period="300.00" file="e1_1.xml"/>
    <e1Detector id="e1_22I" lane="-11731871#2_0" pos="56.53" period="3600.00" file="e1_22I.out.xml"/>
    <e1Detector id="e1_22O" lane="11731871#0_1" pos="56.80" period="3600.00" file="e1_22O.out.xml"/>
    <e1Detector id="e1_22O_2" lane="11731871#0_0" pos="56.80" period="300.00" file="e1_0.xml"/>
    <e1Detector id="e1_24I" lane="-11853134#1_0" pos="57.12" period="3600.00" file="e1_24I.out.xml"/>
    <e1Detector id="e1_24O" lane="11853134#0_1" pos="64.96" period="3600.00" file="e1_24O.out.xml"/>
    <e1Detector id="e1_24O_2" lane="11853134#0_0" pos="64.96" period="3600.00" file="e1_24O.out.xml"/>
    <e1Detector id="e1_25I" lane="E4_1" pos="13.78" period="3600.00" file="e1_25I.out.xml"/>
    <e1Detector id="e1_25I_2" lane="E4_0" pos="13.78" period="3600.00" file="e1_25I.out.xml"/>
    <e1Detector id="e1_26I" lane="-292851770#0_1" pos="60.74" period="3600.00" file="e1_26I.out.xml"/>
    <e1Detector id="e1_26I_2" lane="-292851770#0_0" pos="60.74" period="3600.00" file="e1_26I.out.xml"/>
    <e1Detector id="e1_26O" lane="292851770#0_1" pos="264.62" period="3600.00" file="e1_26O.out.xml"/>
    <e1Detector id="e1_26O_2" lane="292851770#0_0" pos="264.62" period="3600.00" file="e1_26O.out.xml"/>
    <e1Detector id="e1_27O" lane="1041017537_1" pos="53.54" period="3600.00" file="e1_27O.out.xml"/>
    <e1Detector id="e1_27O_2" lane="1041017537_2" pos="53.54" period="3600.00" file="e1_27O.out.xml"/>
    <e1Detector id="e1_27O_3" lane="1041017537_0" pos="53.54" period="3600.00" file="e1_27O.out.xml"/>
    <e1Detector id="e1_28I" lane="-11729090_0" pos="177.29" period="3600.00" file="e1_28I.out.xml"/>
    <e1Detector id="e1_28I_2" lane="-11729090_1" pos="177.29" period="300.00" file="e1_0.xml"/>
    <e1Detector id="e1_28O" lane="11729090_0" pos="118.24" period="3600.00" file="e1_28O.out.xml"/>
    <e1Detector id="e1_28O_2" lane="11729090_1" pos="118.24" period="300.00" file="e1_1.xml"/>
    <e1Detector id="e1_2I" lane="11694981#7_0" pos="70.19" period="3600.00" file="e1_2I.out.xml"/>
    <e1Detector id="e1_2O" lane="-11694981#11_0" pos="70.51" period="3600.00" file="e1_2O.out.xml"/>
    <e1Detector id="e1_3I" lane="11839510#0_0" pos="115.77" period="3600.00" file="e1_3I.out.xml"/>
    <e1Detector id="e1_4I" lane="-11820239#7.82_0" pos="121.30" period="3600.00" file="e1_4I.out.xml"/>
    <e1Detector id="e1_4O" lane="11820239#0_0" pos="72.95" period="3600.00" file="e1_4O.out.xml"/>
    <e1Detector id="e1_5I" lane="E2_0" pos="2.38" period="3600.00" file="e1_5I.out.xml"/>
    <e1Detector id="e1_6I" lane="11697077#0_1" pos="61.41" period="3600.00" file="e1_6I.out.xml"/>
    <e1Detector id="e1_6O" lane="11697077#0_0" pos="61.83" period="3600.00" file="e1_6O.out.xml"/>
    <e1Detector id="e1_7O" lane="294921122#0_0" pos="51.48" period="3600.00" file="e1_7O.out.xml"/>
    <e1Detector id="e1_8I" lane="-913304415_0" pos="62.59" period="3600.00" file="e1_8I.out.xml"/>
    <e1Detector id="e1_8O" lane="11683958#0_0" pos="64.99" period="3600.00" file="e1_8O.out.xml"/>
    <e1Detector id="e1_9I" lane="1022429026_0" pos="138.11" period="3600.00" file="e1_9I.out.xml"/>
    <e1Detector id="e1_9O" lane="-265895121_0" pos="93.96" period="3600.00" file="e1_9O.out.xml"/>
</additional>
