<?xml version="1.0" encoding="UTF-8"?>

<!-- generated on 2023-03-20 12:06:35 by Eclipse SUMO netedit Version 1.14.1
-->

<additional xmlns:xsi="http://www.w3.org/2001/XMLSchema-instance" xsi:noNamespaceSchemaLocation="http://sumo.dlr.de/xsd/additional_file.xsd">
    <!-- StoppingPlaces -->
    <busStop id="bs_0" name="Fifth Ave at Morewood Ave (inbound)" lane="-292851770#0_0" startPos="314.72" endPos="324.72" lines="71B 71D" personCapacity="200"/>
    <busStop id="bs_1" name="Fifth Ave at Morewood Ave (outbound)" lane="625361998#4_0" startPos="163.47" endPos="173.47" lines="58 71B 71D" personCapacity="200"/>
    <busStop id="bs_10" name="Fifth Ave at Tennyson Ave (inbound)" lane="625479007#1_0" startPos="85.53" endPos="95.53" lines="28X 54 58 61A 61B 61C 61D 67 69 71A 71B 71C 71D 75 81 83 93 P3" personCapacity="200"/>
    <busStop id="bs_11" name="Fifth Ave at Bigelow Blvd (Pitt)" lane="-11737884#0_0" startPos="108.65" endPos="118.65" lines="54 71A 71B 71C 71D 75 93 P3" personCapacity="200"/>
    <busStop id="bs_12" name="Fifth Ave at University Pl (Pitt)" lane="11737884#0_0" startPos="108.11" endPos="118.11" lines="28X 54 58 61A 61B 61C 61D 67 69 71A 71B 71C 71D 75 93 P3" personCapacity="200"/>
    <busStop id="bs_13" name="Fifth Ave at Thackeray Ave (inbound)" lane="11737884#1_0" startPos="110.72" endPos="120.72" lines="28X 54 58 61A 61B 61C 61D 67 69 71A 71B 71C 71D 75 81 83 93 P3" personCapacity="200"/>
    <busStop id="bs_14" name="Fifth Ave opposite Thackeray Ave (outbound)" lane="-11737884#3_0" startPos="112.90" endPos="122.90" lines="54 71A 71B 71C 71D 75 93 P3" personCapacity="200"/>
    <busStop id="bs_15" name="Fifth Ave at Oakland Ave" lane="-293149229#0_0" startPos="9.92" endPos="19.92" lines="54 71A 71B 71C 71D 75 93 P3" personCapacity="200"/>
    <busStop id="bs_16" name="Fifth Ave at Desoto St" lane="625866890_0" startPos="31.67" endPos="46.67" lines="81 83" personCapacity="200"/>
    <busStop id="bs_17" name="Fifth Ave at Meyran Ave" lane="-293149229#3_0" startPos="4.85" endPos="14.85" lines="54 71A 71B 71C 71D 75 93 P3" personCapacity="200"/>
    <busStop id="bs_18" name="Fifth Ave at Atwood Station" lane="293149229#2_0" startPos="1.17" endPos="31.17" lines="28X 54 58 61A 61B 61C 61D 67 69 71A 71B 71C 71D 75" personCapacity="200"/>
    <busStop id="bs_19" name="Fifth Ave at Mckee Pl" lane="-293149229#4_0" startPos="18.27" endPos="28.27" lines="54 71A 71B 71C 71D 75 93 P3" personCapacity="200"/>
    <busStop id="bs_2" name="Fifth Ave at Clyde St" lane="625361998#3_0" startPos="10.69" endPos="20.69" lines="58 71B 71D" personCapacity="200"/>
    <busStop id="bs_20" name="Fifth Ave at Halket St" lane="-293149228#0_0" startPos="129.32" endPos="139.32" lines="54 71A 71B 71C 71D 75 93 P3" personCapacity="200"/>
    <busStop id="bs_21" name="Fifth Ave at Chesterfield Rd" lane="625866891#0_0" startPos="205.88" endPos="215.88" lines="28X 54 58 61A 61B 61C 61D 67 69 71A 71B 71C 71D 75 81 83 93 P3" personCapacity="200"/>
    <busStop id="bs_22" name="Fifth Ave at Craft Ave (Carlow Univ) (inbound)" lane="293149228#1_0" startPos="87.21" endPos="97.21" lines="28X 54 61A 61B 61C 61D 67 69 71A 71B 71C 71D 75 81 83 P3" personCapacity="200"/>
    <busStop id="bs_23" name="Fifth Ave at Craft Ave (Carlow Univ) (outbound)" lane="-402298704#0_0" startPos="58.36" endPos="68.36" lines="54 71A 71B 71C 71D 75 93 P3" personCapacity="200"/>
    <busStop id="bs_24" name="Forbes Ave at Craft Ave" lane="1053139777_0" startPos="15.12" endPos="25.12" lines="28X 61A 61B 61C 61D 67 69 81 83" personCapacity="200"/>
    <busStop id="bs_25" name="Forbes Ave at Meyran Ave" lane="294294299#6_0" startPos="53.51" endPos="63.51" lines="81 83" personCapacity="200"/>
    <busStop id="bs_26" name="Forbes Ave at Halket St (Magee Hospital)" lane="625486449#2_0" startPos="94.91" endPos="104.91" lines="28X 61A 61B 61C 61D 67 69 81 83" personCapacity="200"/>
    <busStop id="bs_27" name="Forbes Ave at McKee Pl" lane="294294299#2_0" startPos="108.88" endPos="118.88" lines="28X 58 61A 61B 61C 61D 67 69 81 83" personCapacity="200"/>
    <busStop id="bs_28" name="Forbes Ave at Atwood St" lane="294294299#7_0" startPos="85.93" endPos="95.93" lines="28X 58 61A 61B 61C 61D 67 69" personCapacity="200"/>
    <busStop id="bs_29" name="Forbes Ave at Oakland Ave" lane="294294299#8_0" startPos="76.77" endPos="86.77" lines="81 83" personCapacity="200"/>
    <busStop id="bs_3" name="Fifth Ave at Neville St (inbound)" lane="-625361998#3.164_0" startPos="158.10" endPos="168.10" lines="71B 71D" personCapacity="200"/>
    <busStop id="bs_30" name="Forbes Ave at Bouquet St" lane="714429624#0_0" startPos="15.17" endPos="25.17" lines="28X 58 61A 61B 61C 61D 67 69" personCapacity="200"/>
    <busStop id="bs_31" name="Forbes Ave opposite Bellefield Ave" lane="913305096_0" startPos="1.00" endPos="21.00" lines="28X 61A 61B 61C 61D 67 69" personCapacity="200"/>
    <busStop id="bs_32" name="Forbes Ave at Bigelow Blvd" lane="714429624#0.162_0" startPos="189.94" endPos="199.94" lines="28X 58 61A 61B 61C 61D 67 69" personCapacity="200"/>
    <busStop id="bs_33" name="Forbes Ave at Dithridge St" lane="28727103#0.110_0" startPos="46.43" endPos="56.43" lines="28X 58 61A 61B 61C 61D 67 69" personCapacity="200"/>
    <busStop id="bs_34" name="Forbes Ave at Craig St (outbound)" lane="-28727103#3_0" startPos="154.34" endPos="164.34" lines="28X 61A 61B 61C 61D 67 69" personCapacity="200"/>
    <busStop id="bs_35" name="Forbes Ave at Craig St (inbound)" lane="24864541_0" startPos="237.72" endPos="247.73" lines="28X 58 61A 61B 61C 61D 67 69" personCapacity="200"/>
    <busStop id="bs_36" name="Forbes Ave at Morewood Ave (Carnegie Mellon) (outbound)" lane="335532207#0_0" startPos="7.33" endPos="33.33" lines="61A 61B 61C 61D 67 69" personCapacity="200"/>
    <busStop id="bs_37" name="Forbes Ave at Morewood Ave (Carnegie Mellon) (inbound)" lane="335532208#0_0" startPos="7.21" endPos="33.21" lines="28X 58 61A 61B 61C 61D 67 69" personCapacity="200"/>
    <busStop id="bs_38" name="Morewood Ave at Forbes Ave" lane="-11837579#6_0" startPos="13.39" endPos="23.39" lines="28X" personCapacity="200"/>
    <busStop id="bs_39" name="Bellefield Ave at Board of Education" lane="11834237#0_0" startPos="19.96" endPos="29.96" lines="58" personCapacity="200"/>
    <busStop id="bs_4" name="Fifth Ave at Neville St (outbound)" lane="625851681#0_0" startPos="154.74" endPos="164.74" lines="58 71B 71D" personCapacity="200"/>
    <busStop id="bs_40" name="Craft Ave at Fifth Ave (Dialysis Center)" lane="11853134#0_0" startPos="17.97" endPos="27.97" lines="58 93" personCapacity="200"/>
    <busStop id="bs_41" name="Bellefield Ave at Fifth Ave" lane="11834237#1_0" startPos="189.48" endPos="199.48" lines="58" personCapacity="200"/>
    <busStop id="bs_42" name="Craft Ave at Forbes Ave" lane="317788870#3_0" startPos="99.14" endPos="109.14" lines="93" personCapacity="200"/>
    <busStop id="bs_43" name="Halket St at Forbes Ave" lane="320948876#7_0" startPos="84.80" endPos="94.80" lines="58" personCapacity="200"/>
    <busStop id="bs_44" name="Darragh St at Fifth Ave" lane="11694981#7_0" startPos="119.05" endPos="129.05" lines="81 83" personCapacity="200"/>
    <busStop id="bs_45" name="Craig St at Fifth" lane="-966308107#4.442_0" startPos="1.36" endPos="11.36" lines="54 71A 71C 93" personCapacity="200"/>
    <busStop id="bs_46" name="Craig St at Park Plaza" lane="11960711#0_0" startPos="50.78" endPos="60.78" lines="54 71A 71C 93" personCapacity="200"/>
    <busStop id="bs_47" name="Neville St at Fifth Ave" lane="-11955884#3.119_0" startPos="2.69" endPos="12.69" lines="75 P3" personCapacity="200"/>
    <busStop id="bs_48" name="Neville St at Ellsworth Ave" lane="11955884#0_0" startPos="99.65" endPos="109.65" lines="75 P3" personCapacity="200"/>
    <busStop id="bs_5" name="Fifth Ave at Craig St (inbound)" lane="-625851681#2_0" startPos="157.03" endPos="167.03" lines="71B 71D 75 P3" personCapacity="200"/>
    <busStop id="bs_6" name="Fifth Ave at Bellefield Ave (inbound)" lane="-28727096#0_0" startPos="124.24" endPos="134.24" lines="54 71A 71B 71C 71D 75 93 P3" personCapacity="200"/>
    <busStop id="bs_7" name="Fifth Ave at Craig St (outbound)" lane="28727096#1_0" startPos="89.87" endPos="99.87" lines="58 71B 71D 75 P3" personCapacity="200"/>
    <busStop id="bs_8" name="Fifth Ave at Bellefield Ave (outbound)" lane="-625479007#0_0" startPos="49.37" endPos="59.37" lines="54 71A 71B 71C 71D 75 93 P3" personCapacity="200"/>
    <busStop id="bs_9" name="Fifth Ave at Tennyson Ave (outbound)" lane="-625479007#2_0" startPos="93.69" endPos="103.69" lines="54 71A 71B 71C 71D 75 93 P3" personCapacity="200"/>
</additional>
