<routes>
  <vType id="bus" vClass="bus" impatience="0.5" personCapacity="700" lcStrategic="inf" lcKeepRight="inf" timeToTeleport="-1"/>
  <vType id="stretch_bus" vClass="bus" impatience="0.5" personCapacity="700" lcStrategic="inf" lcKeepRight="inf" timeToTeleport="-1" guiShape="bus/flexible" length="17.9"/>
  <trip id="pt_line_54_out_2600020" line="54" type="bus" depart="00:00:00" departSpeed="max" departLane="best" color="152,191,240" from="-966308107#4" via="-966308107#4.550 -966308107#4.611 -966308107#4.442 -28727096#3 -28727096#0 625479007#0 625479007#0.42 625479007#1 625479007#2 625479007#4 11737884#0 11737884#1 11737884#3 625866890 293149229#0 293149229#1 293149229#2 293149229#3 293149229#4 625866891#0 625866891#2 293149228#0 293149228#1 402298704#0" to="302191269">
    <stop busStop="bs_12" arrival="00:00:00" parking="False" onDemand="True" triggered="False"/>
    <stop busStop="bs_13" arrival="00:00:16" parking="False" onDemand="True" triggered="False"/>
    <stop busStop="bs_18" arrival="00:00:53" parking="False" onDemand="True" triggered="False"/>
    <stop busStop="bs_21" arrival="00:01:51" parking="False" onDemand="True" triggered="False"/>
    <stop busStop="bs_22" arrival="00:02:24" parking="False" onDemand="True" triggered="False"/>
  </trip>
  <trip id="pt_line_61c_in_229020" line="61C" type="stretch_bus" depart="00:00:01" departSpeed="max" departLane="best" color="244,100,85" from="-11729090" via="-335532207#3 335532208#0 24864540#0 24864541 28727103#0 28727103#0.110 28727103#4 11834237#0 11834237#1 625479007#0 625479007#0.42 625479007#1 625479007#2 625479007#4 11737884#0 11737884#1 11737884#3 625866890 293149229#0 293149229#1 293149229#2 293149229#3 293149229#4 625866891#0 625866891#2 293149228#0 293149228#1 402298704#0" to="302191269">
    <stop busStop="bs_10" arrival="00:00:01" parking="False" onDemand="True" triggered="False"/>
    <stop busStop="bs_12" arrival="00:00:54" parking="False" onDemand="True" triggered="False"/>
    <stop busStop="bs_13" arrival="00:01:15" parking="False" onDemand="True" triggered="False"/>
    <stop busStop="bs_18" arrival="00:02:00" parking="False" onDemand="True" triggered="False"/>
    <stop busStop="bs_21" arrival="00:02:51" parking="False" onDemand="True" triggered="False"/>
    <stop busStop="bs_22" arrival="00:03:21" parking="False" onDemand="True" triggered="False"/>
  </trip>
  <trip id="pt_line_71d_out_13348020" line="71D" type="stretch_bus" depart="00:00:25" departSpeed="max" departLane="best" color="152,191,240" from="-302191269" via="-402298704#0 -293149228#1 -293149228#0 -625866891#2 -625866891#0 -293149229#4 -293149229#3 -293149229#2 -293149229#1 -293149229#0 -625866890 -11737884#3 -11737884#1 -11737884#0 -625479007#4 -625479007#2 -625479007#1 -625479007#0 28727096#0 28727096#1 625851681#0 625361998#0 625361998#3 625361998#4" to="292851770#0">
    <stop busStop="bs_11" arrival="00:00:25" parking="False" onDemand="True" triggered="False"/>
    <stop busStop="bs_9" arrival="00:01:17" parking="False" onDemand="True" triggered="False"/>
    <stop busStop="bs_8" arrival="00:02:00" parking="False" onDemand="True" triggered="False"/>
    <stop busStop="bs_7" arrival="00:03:00" parking="False" onDemand="True" triggered="False"/>
    <stop busStop="bs_4" arrival="00:03:25" parking="False" onDemand="True" triggered="False"/>
    <stop busStop="bs_2" arrival="00:03:48" parking="False" onDemand="True" triggered="False"/>
    <stop busStop="bs_1" arrival="00:04:15" parking="False" onDemand="True" triggered="False"/>
  </trip>
  <trip id="pt_line_61d_out_1527020" line="61D" type="stretch_bus" depart="00:00:48" departSpeed="max" departLane="best" color="244,100,85" from="1041017537" via="1053139777 625486449#2 294294299#0 294294299#2 294294299#5 294294299#6 294294299#7 294294299#8 294294299#9 714429624#0 714429624#0.162 293149231#0 913301010 913305096 -28727103#6 -28727103#3 -320455187#3 -24864540#7 -335532208#1 -335532208#1.31 335532207#0 11729090" to="11729090">
    <stop busStop="bs_24" arrival="00:00:48" parking="False" onDemand="True" triggered="False"/>
    <stop busStop="bs_26" arrival="00:01:07" parking="False" onDemand="True" triggered="False"/>
    <stop busStop="bs_27" arrival="00:01:35" parking="False" onDemand="True" triggered="False"/>
    <stop busStop="bs_28" arrival="00:02:00" parking="False" onDemand="True" triggered="False"/>
    <stop busStop="bs_30" arrival="00:02:33" parking="False" onDemand="True" triggered="False"/>
    <stop busStop="bs_32" arrival="00:03:22" parking="False" onDemand="True" triggered="False"/>
    <stop busStop="bs_31" arrival="00:04:11" parking="False" onDemand="True" triggered="False"/>
    <stop busStop="bs_34" arrival="00:05:00" parking="False" onDemand="True" triggered="False"/>
    <stop busStop="bs_36" arrival="00:06:08" parking="False" onDemand="True" triggered="False"/>
  </trip>
  <trip id="pt_line_71d_in_2709020" line="71D" type="stretch_bus" depart="00:00:51" departSpeed="max" departLane="best" color="152,191,240" from="-292851770#0" via="-625361998#5 -625361998#3 -625361998#3.164 -625851681#2 -28727096#3 -28727096#0 625479007#0 625479007#0.42 625479007#1 625479007#2 625479007#4 11737884#0 11737884#1 11737884#3 625866890 293149229#0 293149229#1 293149229#2 293149229#3 293149229#4 625866891#0 625866891#2 293149228#0 293149228#1 402298704#0" to="302191269">
    <stop busStop="bs_0" arrival="00:00:51" parking="False" onDemand="True" triggered="False"/>
    <stop busStop="bs_3" arrival="00:01:35" parking="False" onDemand="True" triggered="False"/>
    <stop busStop="bs_5" arrival="00:02:00" parking="False" onDemand="True" triggered="False"/>
    <stop busStop="bs_6" arrival="00:02:38" parking="False" onDemand="True" triggered="False"/>
    <stop busStop="bs_10" arrival="00:03:07" parking="False" onDemand="True" triggered="False"/>
    <stop busStop="bs_12" arrival="00:03:58" parking="False" onDemand="True" triggered="False"/>
    <stop busStop="bs_13" arrival="00:04:17" parking="False" onDemand="True" triggered="False"/>
    <stop busStop="bs_18" arrival="00:05:00" parking="False" onDemand="True" triggered="False"/>
    <stop busStop="bs_21" arrival="00:05:51" parking="False" onDemand="True" triggered="False"/>
    <stop busStop="bs_22" arrival="00:06:21" parking="False" onDemand="True" triggered="False"/>
  </trip>
  <trip id="pt_line_61a_in_7483020" line="61A" type="stretch_bus" depart="00:05:06" departSpeed="max" departLane="best" color="244,100,85" from="-11729090" via="-335532207#3 335532208#0 24864540#0 24864541 28727103#0 28727103#0.110 28727103#4 11834237#0 11834237#1 625479007#0 625479007#0.42 625479007#1 625479007#2 625479007#4 11737884#0 11737884#1 11737884#3 625866890 293149229#0 293149229#1 293149229#2 293149229#3 293149229#4 625866891#0 625866891#2 293149228#0 293149228#1 402298704#0" to="302191269">
    <stop busStop="bs_37" arrival="00:05:06" parking="False" onDemand="True" triggered="False"/>
    <stop busStop="bs_35" arrival="00:06:00" parking="False" onDemand="True" triggered="False"/>
    <stop busStop="bs_33" arrival="00:06:26" parking="False" onDemand="True" triggered="False"/>
    <stop busStop="bs_10" arrival="00:08:01" parking="False" onDemand="True" triggered="False"/>
    <stop busStop="bs_12" arrival="00:08:54" parking="False" onDemand="True" triggered="False"/>
    <stop busStop="bs_13" arrival="00:09:15" parking="False" onDemand="True" triggered="False"/>
    <stop busStop="bs_18" arrival="00:10:00" parking="False" onDemand="True" triggered="False"/>
    <stop busStop="bs_21" arrival="00:10:51" parking="False" onDemand="True" triggered="False"/>
    <stop busStop="bs_22" arrival="00:11:21" parking="False" onDemand="True" triggered="False"/>
  </trip>
  <trip id="pt_line_71a_out_4842020" line="71A" type="stretch_bus" depart="00:05:40" departSpeed="max" departLane="best" color="152,191,240" from="-302191269" via="-402298704#0 -293149228#1 -293149228#0 -625866891#2 -625866891#0 -293149229#4 -293149229#3 -293149229#2 -293149229#1 -293149229#0 -625866890 -11737884#3 -11737884#1 -11737884#0 -625479007#4 -625479007#2 -625479007#1 -625479007#0 28727096#0 28727096#1 11960711#0 11960711#0.74" to="11960711#0.133">
    <stop busStop="bs_23" arrival="00:05:40" parking="False" onDemand="True" triggered="False"/>
    <stop busStop="bs_20" arrival="00:06:04" parking="False" onDemand="True" triggered="False"/>
    <stop busStop="bs_19" arrival="00:06:36" parking="False" onDemand="True" triggered="False"/>
    <stop busStop="bs_17" arrival="00:06:44" parking="False" onDemand="True" triggered="False"/>
    <stop busStop="bs_15" arrival="00:07:00" parking="False" onDemand="True" triggered="False"/>
    <stop busStop="bs_14" arrival="00:07:30" parking="False" onDemand="True" triggered="False"/>
    <stop busStop="bs_11" arrival="00:08:31" parking="False" onDemand="True" triggered="False"/>
    <stop busStop="bs_9" arrival="00:09:31" parking="False" onDemand="True" triggered="False"/>
    <stop busStop="bs_8" arrival="00:10:02" parking="False" onDemand="True" triggered="False"/>
    <stop busStop="bs_46" arrival="00:12:00" parking="False" onDemand="True" triggered="False"/>
  </trip>
  <trip id="pt_line_75_in_11995020" line="75" type="bus" depart="00:06:14" departSpeed="max" departLane="best" color="152,191,240" from="-1022429029" via="-11955884#3 -11955884#3.119 -625851681#2 -28727096#3 -28727096#0 625479007#0 625479007#0.42 625479007#1 625479007#2 625479007#4 11737884#0 11737884#1 11737884#3 625866890 293149229#0 293149229#1 293149229#2 293149229#3 293149229#4 625866891#0 625866891#2 293149228#0 293149228#1 402298704#0" to="302191269">
    <stop busStop="bs_47" arrival="00:06:14" parking="False" onDemand="True" triggered="False"/>
    <stop busStop="bs_5" arrival="00:07:00" parking="False" onDemand="True" triggered="False"/>
    <stop busStop="bs_6" arrival="00:07:50" parking="False" onDemand="True" triggered="False"/>
    <stop busStop="bs_10" arrival="00:08:30" parking="False" onDemand="True" triggered="False"/>
    <stop busStop="bs_12" arrival="00:09:38" parking="False" onDemand="True" triggered="False"/>
    <stop busStop="bs_13" arrival="00:10:03" parking="False" onDemand="True" triggered="False"/>
    <stop busStop="bs_18" arrival="00:11:00" parking="False" onDemand="True" triggered="False"/>
    <stop busStop="bs_21" arrival="00:11:48" parking="False" onDemand="True" triggered="False"/>
    <stop busStop="bs_22" arrival="00:12:16" parking="False" onDemand="True" triggered="False"/>
  </trip>
  <trip id="pt_line_54_in_2440020" line="54" type="bus" depart="00:07:01" departSpeed="max" departLane="best" color="152,191,240" from="-302191269" via="-402298704#0 -293149228#1 -293149228#0 -625866891#2 -625866891#0 -293149229#4 -293149229#3 -293149229#2 -293149229#1 -293149229#0 -625866890 -11737884#3 -11737884#1 -11737884#0 -625479007#4 -625479007#2 -625479007#1 -625479007#0 28727096#0 28727096#1 11960711#0 11960711#0.74" to="11960711#0.133">
    <stop busStop="bs_23" arrival="00:07:01" parking="False" onDemand="True" triggered="False"/>
    <stop busStop="bs_20" arrival="00:07:46" parking="False" onDemand="True" triggered="False"/>
    <stop busStop="bs_19" arrival="00:08:27" parking="False" onDemand="True" triggered="False"/>
    <stop busStop="bs_17" arrival="00:08:37" parking="False" onDemand="True" triggered="False"/>
    <stop busStop="bs_15" arrival="00:08:59" parking="False" onDemand="True" triggered="False"/>
    <stop busStop="bs_14" arrival="00:09:19" parking="False" onDemand="True" triggered="False"/>
    <stop busStop="bs_11" arrival="00:10:00" parking="False" onDemand="True" triggered="False"/>
    <stop busStop="bs_9" arrival="00:10:55" parking="False" onDemand="True" triggered="False"/>
    <stop busStop="bs_8" arrival="00:11:23" parking="False" onDemand="True" triggered="False"/>
    <stop busStop="bs_46" arrival="00:13:00" parking="False" onDemand="True" triggered="False"/>
  </trip>
  <trip id="pt_line_61b_out_11542020" line="61B" type="stretch_bus" depart="00:08:48" departSpeed="max" departLane="best" color="244,100,85" from="1041017537" via="1053139777 625486449#2 294294299#0 294294299#2 294294299#5 294294299#6 294294299#7 294294299#8 294294299#9 714429624#0 714429624#0.162 293149231#0 913301010 913305096 -28727103#6 -28727103#3 -320455187#3 -24864540#7 -335532208#1 -335532208#1.31 335532207#0 11729090" to="11729090">
    <stop busStop="bs_24" arrival="00:08:48" parking="False" onDemand="True" triggered="False"/>
    <stop busStop="bs_26" arrival="00:09:07" parking="False" onDemand="True" triggered="False"/>
    <stop busStop="bs_27" arrival="00:09:35" parking="False" onDemand="True" triggered="False"/>
    <stop busStop="bs_28" arrival="00:10:00" parking="False" onDemand="True" triggered="False"/>
    <stop busStop="bs_30" arrival="00:10:33" parking="False" onDemand="True" triggered="False"/>
    <stop busStop="bs_32" arrival="00:11:22" parking="False" onDemand="True" triggered="False"/>
    <stop busStop="bs_31" arrival="00:12:11" parking="False" onDemand="True" triggered="False"/>
    <stop busStop="bs_34" arrival="00:13:00" parking="False" onDemand="True" triggered="False"/>
    <stop busStop="bs_36" arrival="00:14:08" parking="False" onDemand="True" triggered="False"/>
  </trip>
  <trip id="pt_line_71a_in_3434020" line="71A" type="stretch_bus" depart="00:10:00" departSpeed="max" departLane="best" color="152,191,240" from="-966308107#4" via="-966308107#4.550 -966308107#4.611 -966308107#4.442 -28727096#3 -28727096#0 625479007#0 625479007#0.42 625479007#1 625479007#2 625479007#4 11737884#0 11737884#1 11737884#3 625866890 293149229#0 293149229#1 293149229#2 293149229#3 293149229#4 625866891#0 625866891#2 293149228#0 293149228#1 402298704#0" to="302191269">
    <stop busStop="bs_45" arrival="00:10:00" parking="False" onDemand="True" triggered="False"/>
    <stop busStop="bs_6" arrival="00:10:44" parking="False" onDemand="True" triggered="False"/>
    <stop busStop="bs_10" arrival="00:11:12" parking="False" onDemand="True" triggered="False"/>
    <stop busStop="bs_12" arrival="00:12:01" parking="False" onDemand="True" triggered="False"/>
    <stop busStop="bs_13" arrival="00:12:19" parking="False" onDemand="True" triggered="False"/>
    <stop busStop="bs_18" arrival="00:13:00" parking="False" onDemand="True" triggered="False"/>
    <stop busStop="bs_21" arrival="00:13:51" parking="False" onDemand="True" triggered="False"/>
    <stop busStop="bs_22" arrival="00:14:21" parking="False" onDemand="True" triggered="False"/>
  </trip>
  <trip id="pt_line_61d_in_6476020" line="61D" type="stretch_bus" depart="00:12:06" departSpeed="max" departLane="best" color="244,100,85" from="-11729090" via="-335532207#3 335532208#0 24864540#0 24864541 28727103#0 28727103#0.110 28727103#4 11834237#0 11834237#1 625479007#0 625479007#0.42 625479007#1 625479007#2 625479007#4 11737884#0 11737884#1 11737884#3 625866890 293149229#0 293149229#1 293149229#2 293149229#3 293149229#4 625866891#0 625866891#2 293149228#0 293149228#1 402298704#0" to="302191269">
    <stop busStop="bs_37" arrival="00:12:06" parking="False" onDemand="True" triggered="False"/>
    <stop busStop="bs_35" arrival="00:13:00" parking="False" onDemand="True" triggered="False"/>
    <stop busStop="bs_33" arrival="00:13:26" parking="False" onDemand="True" triggered="False"/>
    <stop busStop="bs_10" arrival="00:15:01" parking="False" onDemand="True" triggered="False"/>
    <stop busStop="bs_12" arrival="00:15:54" parking="False" onDemand="True" triggered="False"/>
    <stop busStop="bs_13" arrival="00:16:15" parking="False" onDemand="True" triggered="False"/>
    <stop busStop="bs_18" arrival="00:17:00" parking="False" onDemand="True" triggered="False"/>
    <stop busStop="bs_21" arrival="00:17:51" parking="False" onDemand="True" triggered="False"/>
    <stop busStop="bs_22" arrival="00:18:21" parking="False" onDemand="True" triggered="False"/>
  </trip>
  <trip id="pt_line_71b_out_9967020" line="71B" type="stretch_bus" depart="00:12:27" departSpeed="max" departLane="best" color="152,191,240" from="-302191269" via="-402298704#0 -293149228#1 -293149228#0 -625866891#2 -625866891#0 -293149229#4 -293149229#3 -293149229#2 -293149229#1 -293149229#0 -625866890 -11737884#3 -11737884#1 -11737884#0 -625479007#4 -625479007#2 -625479007#1 -625479007#0 28727096#0 28727096#1 625851681#0 625361998#0 625361998#3 625361998#4" to="292851770#0">
    <stop busStop="bs_23" arrival="00:12:27" parking="False" onDemand="True" triggered="False"/>
    <stop busStop="bs_20" arrival="00:13:03" parking="False" onDemand="True" triggered="False"/>
    <stop busStop="bs_19" arrival="00:13:35" parking="False" onDemand="True" triggered="False"/>
    <stop busStop="bs_17" arrival="00:13:43" parking="False" onDemand="True" triggered="False"/>
    <stop busStop="bs_15" arrival="00:14:00" parking="False" onDemand="True" triggered="False"/>
    <stop busStop="bs_14" arrival="00:14:30" parking="False" onDemand="True" triggered="False"/>
    <stop busStop="bs_11" arrival="00:15:30" parking="False" onDemand="True" triggered="False"/>
    <stop busStop="bs_9" arrival="00:16:30" parking="False" onDemand="True" triggered="False"/>
    <stop busStop="bs_8" arrival="00:17:00" parking="False" onDemand="True" triggered="False"/>
    <stop busStop="bs_7" arrival="00:18:00" parking="False" onDemand="True" triggered="False"/>
    <stop busStop="bs_2" arrival="00:18:51" parking="False" onDemand="True" triggered="False"/>
    <stop busStop="bs_1" arrival="00:19:17" parking="False" onDemand="True" triggered="False"/>
  </trip>
  <trip id="pt_line_75_out_4021020" line="75" type="bus" depart="00:13:36" departSpeed="max" departLane="best" color="152,191,240" from="-302191269" via="-402298704#0 -293149228#1 -293149228#0 -625866891#2 -625866891#0 -293149229#4 -293149229#3 -293149229#2 -293149229#1 -293149229#0 -625866890 -11737884#3 -11737884#1 -11737884#0 -625479007#4 -625479007#2 -625479007#1 -625479007#0 28727096#0 28727096#1 625851681#0 11955884#0 1022429029" to="1022429029">
    <stop busStop="bs_23" arrival="00:13:36" parking="False" onDemand="True" triggered="False"/>
    <stop busStop="bs_20" arrival="00:14:03" parking="False" onDemand="True" triggered="False"/>
    <stop busStop="bs_19" arrival="00:14:33" parking="False" onDemand="True" triggered="False"/>
    <stop busStop="bs_17" arrival="00:14:43" parking="False" onDemand="True" triggered="False"/>
    <stop busStop="bs_15" arrival="00:15:00" parking="False" onDemand="True" triggered="False"/>
    <stop busStop="bs_14" arrival="00:15:43" parking="False" onDemand="True" triggered="False"/>
    <stop busStop="bs_11" arrival="00:16:34" parking="False" onDemand="True" triggered="False"/>
    <stop busStop="bs_9" arrival="00:17:25" parking="False" onDemand="True" triggered="False"/>
    <stop busStop="bs_8" arrival="00:18:01" parking="False" onDemand="True" triggered="False"/>
    <stop busStop="bs_7" arrival="00:19:00" parking="False" onDemand="True" triggered="False"/>
    <stop busStop="bs_48" arrival="00:19:57" parking="False" onDemand="True" triggered="False"/>
  </trip>
  <trip id="pt_line_71b_in_14092020" line="71B" type="stretch_bus" depart="00:15:51" departSpeed="max" departLane="best" color="152,191,240" from="-292851770#0" via="-625361998#5 -625361998#3 -625361998#3.164 -625851681#2 -28727096#3 -28727096#0 625479007#0 625479007#0.42 625479007#1 625479007#2 625479007#4 11737884#0 11737884#1 11737884#3 625866890 293149229#0 293149229#1 293149229#2 293149229#3 293149229#4 625866891#0 625866891#2 293149228#0 293149228#1 402298704#0" to="302191269">
    <stop busStop="bs_0" arrival="00:15:51" parking="False" onDemand="True" triggered="False"/>
    <stop busStop="bs_3" arrival="00:16:35" parking="False" onDemand="True" triggered="False"/>
    <stop busStop="bs_5" arrival="00:17:00" parking="False" onDemand="True" triggered="False"/>
    <stop busStop="bs_6" arrival="00:17:38" parking="False" onDemand="True" triggered="False"/>
    <stop busStop="bs_10" arrival="00:18:07" parking="False" onDemand="True" triggered="False"/>
    <stop busStop="bs_12" arrival="00:18:58" parking="False" onDemand="True" triggered="False"/>
    <stop busStop="bs_13" arrival="00:19:17" parking="False" onDemand="True" triggered="False"/>
    <stop busStop="bs_18" arrival="00:20:00" parking="False" onDemand="True" triggered="False"/>
    <stop busStop="bs_21" arrival="00:20:51" parking="False" onDemand="True" triggered="False"/>
    <stop busStop="bs_22" arrival="00:21:21" parking="False" onDemand="True" triggered="False"/>
  </trip>
  <trip id="pt_line_28x_in_183020" line="28X" type="stretch_bus" depart="00:18:02" departSpeed="max" departLane="best" color="244,100,85" from="317788870#3" via="1053139777 625486449#2 294294299#0 294294299#2 294294299#5 294294299#6 294294299#7 294294299#8 294294299#9 714429624#0 714429624#0.162 293149231#0 913301010 913305096 -28727103#6 -28727103#3 -320455187#3 -24864540#7 -335532208#1 -335532208#1.31 -11837579#6 -11837579#2 -11837579#2.39" to="292851770#0">
    <stop busStop="bs_24" arrival="00:18:02" parking="False" onDemand="True" triggered="False"/>
    <stop busStop="bs_26" arrival="00:18:17" parking="False" onDemand="True" triggered="False"/>
    <stop busStop="bs_27" arrival="00:18:40" parking="False" onDemand="True" triggered="False"/>
    <stop busStop="bs_28" arrival="00:19:00" parking="False" onDemand="True" triggered="False"/>
    <stop busStop="bs_30" arrival="00:19:30" parking="False" onDemand="True" triggered="False"/>
    <stop busStop="bs_32" arrival="00:20:15" parking="False" onDemand="True" triggered="False"/>
    <stop busStop="bs_31" arrival="00:21:01" parking="False" onDemand="True" triggered="False"/>
    <stop busStop="bs_34" arrival="00:21:46" parking="False" onDemand="True" triggered="False"/>
    <stop busStop="bs_38" arrival="00:23:44" parking="False" onDemand="True" triggered="False"/>
  </trip>
  <trip id="pt_line_71c_out_10746020" line="71C" type="stretch_bus" depart="00:20:39" departSpeed="max" departLane="best" color="152,191,240" from="-302191269" via="-402298704#0 -293149228#1 -293149228#0 -625866891#2 -625866891#0 -293149229#4 -293149229#3 -293149229#2 -293149229#1 -293149229#0 -625866890 -11737884#3 -11737884#1 -11737884#0 -625479007#4 -625479007#2 -625479007#1 -625479007#0 28727096#0 28727096#1 11960711#0 11960711#0.74" to="11960711#0.133">
    <stop busStop="bs_23" arrival="00:20:39" parking="False" onDemand="True" triggered="False"/>
    <stop busStop="bs_20" arrival="00:21:03" parking="False" onDemand="True" triggered="False"/>
    <stop busStop="bs_19" arrival="00:21:35" parking="False" onDemand="True" triggered="False"/>
    <stop busStop="bs_17" arrival="00:21:43" parking="False" onDemand="True" triggered="False"/>
    <stop busStop="bs_15" arrival="00:22:00" parking="False" onDemand="True" triggered="False"/>
    <stop busStop="bs_14" arrival="00:22:31" parking="False" onDemand="True" triggered="False"/>
    <stop busStop="bs_11" arrival="00:23:34" parking="False" onDemand="True" triggered="False"/>
    <stop busStop="bs_9" arrival="00:24:37" parking="False" onDemand="True" triggered="False"/>
    <stop busStop="bs_8" arrival="00:25:09" parking="False" onDemand="True" triggered="False"/>
    <stop busStop="bs_46" arrival="00:27:00" parking="False" onDemand="True" triggered="False"/>
  </trip>
  <trip id="pt_line_83_out_8521020" line="83" type="bus" depart="00:23:00" departSpeed="max" departLane="best" color="218,138,220" from="11694981#7" via="625866891#0 625866891#2 293149228#0 293149228#1 402298704#0" to="302191269">
    <stop busStop="bs_44" arrival="00:23:00" parking="False" onDemand="True" triggered="False"/>
    <stop busStop="bs_21" arrival="00:23:34" parking="False" onDemand="True" triggered="False"/>
    <stop busStop="bs_22" arrival="00:24:03" parking="False" onDemand="True" triggered="False"/>
  </trip>
  <trip id="pt_line_61c_out_13283020" line="61C" type="stretch_bus" depart="00:23:48" departSpeed="max" departLane="best" color="244,100,85" from="1041017537" via="1053139777 625486449#2 294294299#0 294294299#2 294294299#5 294294299#6 294294299#7 294294299#8 294294299#9 714429624#0 714429624#0.162 293149231#0 913301010 913305096 -28727103#6 -28727103#3 -320455187#3 -24864540#7 -335532208#1 -335532208#1.31 335532207#0 11729090" to="11729090">
    <stop busStop="bs_24" arrival="00:23:48" parking="False" onDemand="True" triggered="False"/>
    <stop busStop="bs_26" arrival="00:24:07" parking="False" onDemand="True" triggered="False"/>
    <stop busStop="bs_27" arrival="00:24:35" parking="False" onDemand="True" triggered="False"/>
    <stop busStop="bs_28" arrival="00:25:00" parking="False" onDemand="True" triggered="False"/>
    <stop busStop="bs_30" arrival="00:25:33" parking="False" onDemand="True" triggered="False"/>
    <stop busStop="bs_32" arrival="00:26:22" parking="False" onDemand="True" triggered="False"/>
    <stop busStop="bs_31" arrival="00:27:11" parking="False" onDemand="True" triggered="False"/>
    <stop busStop="bs_34" arrival="00:28:00" parking="False" onDemand="True" triggered="False"/>
    <stop busStop="bs_36" arrival="00:29:08" parking="False" onDemand="True" triggered="False"/>
  </trip>
  <trip id="pt_line_61b_in_6953020" line="61B" type="stretch_bus" depart="00:27:06" departSpeed="max" departLane="best" color="244,100,85" from="-11729090" via="-335532207#3 335532208#0 24864540#0 24864541 28727103#0 28727103#0.110 28727103#4 11834237#0 11834237#1 625479007#0 625479007#0.42 625479007#1 625479007#2 625479007#4 11737884#0 11737884#1 11737884#3 625866890 293149229#0 293149229#1 293149229#2 293149229#3 293149229#4 625866891#0 625866891#2 293149228#0 293149228#1 402298704#0" to="302191269">
    <stop busStop="bs_37" arrival="00:27:06" parking="False" onDemand="True" triggered="False"/>
    <stop busStop="bs_35" arrival="00:28:00" parking="False" onDemand="True" triggered="False"/>
    <stop busStop="bs_33" arrival="00:28:26" parking="False" onDemand="True" triggered="False"/>
    <stop busStop="bs_10" arrival="00:30:01" parking="False" onDemand="True" triggered="False"/>
    <stop busStop="bs_12" arrival="00:30:54" parking="False" onDemand="True" triggered="False"/>
    <stop busStop="bs_13" arrival="00:31:15" parking="False" onDemand="True" triggered="False"/>
    <stop busStop="bs_18" arrival="00:32:00" parking="False" onDemand="True" triggered="False"/>
    <stop busStop="bs_21" arrival="00:32:51" parking="False" onDemand="True" triggered="False"/>
    <stop busStop="bs_22" arrival="00:33:21" parking="False" onDemand="True" triggered="False"/>
  </trip>
  <trip id="pt_line_54_out_3320020" line="54" type="bus" depart="00:27:11" departSpeed="max" departLane="best" color="152,191,240" from="-966308107#4" via="-966308107#4.550 -966308107#4.611 -966308107#4.442 -28727096#3 -28727096#0 625479007#0 625479007#0.42 625479007#1 625479007#2 625479007#4 11737884#0 11737884#1 11737884#3 625866890 293149229#0 293149229#1 293149229#2 293149229#3 293149229#4 625866891#0 625866891#2 293149228#0 293149228#1 402298704#0" to="302191269">
    <stop busStop="bs_45" arrival="00:27:11" parking="False" onDemand="True" triggered="False"/>
    <stop busStop="bs_6" arrival="00:28:13" parking="False" onDemand="True" triggered="False"/>
    <stop busStop="bs_10" arrival="00:28:52" parking="False" onDemand="True" triggered="False"/>
    <stop busStop="bs_12" arrival="00:30:00" parking="False" onDemand="True" triggered="False"/>
    <stop busStop="bs_13" arrival="00:30:16" parking="False" onDemand="True" triggered="False"/>
    <stop busStop="bs_18" arrival="00:30:53" parking="False" onDemand="True" triggered="False"/>
    <stop busStop="bs_21" arrival="00:31:51" parking="False" onDemand="True" triggered="False"/>
    <stop busStop="bs_22" arrival="00:32:24" parking="False" onDemand="True" triggered="False"/>
  </trip>
  <trip id="pt_line_71d_out_4025020" line="71D" type="stretch_bus" depart="00:27:15" departSpeed="max" departLane="best" color="152,191,240" from="-302191269" via="-402298704#0 -293149228#1 -293149228#0 -625866891#2 -625866891#0 -293149229#4 -293149229#3 -293149229#2 -293149229#1 -293149229#0 -625866890 -11737884#3 -11737884#1 -11737884#0 -625479007#4 -625479007#2 -625479007#1 -625479007#0 28727096#0 28727096#1 625851681#0 625361998#0 625361998#3 625361998#4" to="292851770#0">
    <stop busStop="bs_23" arrival="00:27:15" parking="False" onDemand="True" triggered="False"/>
    <stop busStop="bs_20" arrival="00:27:50" parking="False" onDemand="True" triggered="False"/>
    <stop busStop="bs_19" arrival="00:28:27" parking="False" onDemand="True" triggered="False"/>
    <stop busStop="bs_17" arrival="00:28:38" parking="False" onDemand="True" triggered="False"/>
    <stop busStop="bs_15" arrival="00:29:00" parking="False" onDemand="True" triggered="False"/>
    <stop busStop="bs_14" arrival="00:29:42" parking="False" onDemand="True" triggered="False"/>
    <stop busStop="bs_11" arrival="00:30:25" parking="False" onDemand="True" triggered="False"/>
    <stop busStop="bs_9" arrival="00:31:17" parking="False" onDemand="True" triggered="False"/>
    <stop busStop="bs_8" arrival="00:32:00" parking="False" onDemand="True" triggered="False"/>
    <stop busStop="bs_7" arrival="00:33:00" parking="False" onDemand="True" triggered="False"/>
    <stop busStop="bs_4" arrival="00:33:25" parking="False" onDemand="True" triggered="False"/>
    <stop busStop="bs_2" arrival="00:33:48" parking="False" onDemand="True" triggered="False"/>
    <stop busStop="bs_1" arrival="00:34:15" parking="False" onDemand="True" triggered="False"/>
  </trip>