<?xml version="1.0" encoding="UTF-8"?>

<!-- generated on 2023-01-27 13:15:50 by Eclipse SUMO polyconvert Version 1.14.1
<configuration xmlns:xsi="http://www.w3.org/2001/XMLSchema-instance" xsi:noNamespaceSchemaLocation="http://sumo.dlr.de/xsd/polyconvertConfiguration.xsd">

    <input>
        <net-file value="osm.net.xml"/>
        <osm-files value="osm_bbox.osm.xml.gz"/>
        <osm.keep-full-type value="true"/>
        <type-file value="/usr/share/sumo/data/typemap/osmPolyconvert.typ.xml"/>
    </input>

    <output>
        <output-file value="osm.poly.xml"/>
    </output>

    <report>
        <verbose value="true"/>
    </report>

</configuration>
-->

<additional xmlns:xsi="http://www.w3.org/2001/XMLSchema-instance" xsi:noNamespaceSchemaLocation="http://sumo.dlr.de/xsd/additional_file.xsd">
    <location netOffset="8902306.57,-4928729.73" convBoundary="-0.00,-348.65,4579.78,3035.25" origBoundary="-79.970781,40.428319,-79.929640,40.451455" projParameter="+proj=merc +a=6378137 +b=6378137 +lat_ts=0.0 +lon_0=0.0 +x_0=0.0 +y_0=0 +k=1.0 +units=m +nadgrids=@null +wktext +no_defs"/>

    <poly id="1000417250" type="landuse.recreation_ground" color="194,194,130" fill="1" layer="-3.00" shape="2364.298800,1961.268888 2372.558707,1937.470296 2310.843181,1912.881890 2301.481212,1939.518113 2364.298800,1961.268888"/>
    <poly id="1000417251" type="leisure.garden" color="207,245,201" fill="1" layer="-2.00" shape="2616.270468,2221.813857 2601.631955,2220.365716 2605.372290,2183.635659 2619.988539,2195.337773 2616.270468,2221.813857"/>
    <poly id="1001793191" type="natural.wood" color="140,196,107" fill="1" layer="-4.00" shape="3023.566221,1813.475732 3016.430641,1814.148578 3010.508444,1817.044741 3005.799630,1823.539171 3004.074178,1831.759603 3004.897942,1835.109212 2986.051552,1840.243330 2983.691579,1816.503539 2970.889838,1810.901366 2930.736897,1817.103250 2926.295250,1809.672692 2919.237594,1813.183191 2909.497139,1809.029100 2900.591579,1798.921796 2890.572825,1794.826219 2991.194513,1762.851529 2979.717473,1719.701951 2995.892195,1715.196854 2993.754861,1706.654726 2995.279938,1706.230546 2998.686315,1705.148153 3012.434272,1705.162780 3018.289677,1721.661962 3024.456777,1737.429823 3029.855772,1753.139201 3034.197232,1768.629199 3034.475531,1783.285480 3023.566221,1813.475732"/>
    <poly id="1001793195" type="leisure.garden" color="207,245,201" fill="1" layer="-2.00" shape="2920.139282,2158.724831 2926.094875,2169.300589 2938.306623,2163.039973 2932.751780,2151.996139 2920.139282,2158.724831"/>
    <poly id="1001793197" type="amenity.shelter" color="237,199,199" fill="1" layer="-1.00" shape="3027.106181,2065.635247 3025.837138,2062.782893 3034.542323,2058.116737 3036.312302,2061.012972 3027.106181,2065.635247"/>
    <poly id="1001793197#1" type="building.yes" color="255,230,230" fill="1" layer="-1.00" shape="3027.106181,2065.635247 3025.837138,2062.782893 3034.542323,2058.116737 3036.312302,2061.012972 3027.106181,2065.635247"/>
    <poly id="1001793198" type="leisure.garden" color="207,245,201" fill="1" layer="-2.00" shape="3236.854365,1990.757575 3269.927386,1983.487786 3270.962657,1980.796357 3270.116629,1976.510550 3234.093642,1980.064990 3236.854365,1990.757575"/>
    <poly id="1001795323" type="natural.tree_row" color="140,196,107" fill="0" layer="-4.00" shape="2907.994325,2131.283498 2917.267239,2126.544171"/>
    <poly id="1001795324" type="natural.tree_row" color="140,196,107" fill="0" layer="-4.00" shape="2924.124520,2122.784892 2932.684988,2118.703808"/>
    <poly id="1001795325" type="natural.tree_row" color="140,196,107" fill="0" layer="-4.00" shape="2939.508873,2115.178572 2946.265966,2111.580200"/>
    <poly id="1001795326" type="natural.tree_row" color="140,196,107" fill="0" layer="-4.00" shape="2952.421934,2107.747789 2959.824680,2104.032400"/>
    <poly id="1001795327" type="natural.tree_row" color="140,196,107" fill="0" layer="-4.00" shape="2966.748753,2100.668072 2974.340742,2096.645507"/>
    <poly id="1001795328" type="natural.tree_row" color="140,196,107" fill="0" layer="-4.00" shape="2980.552369,2093.442084 2988.623033,2089.112345"/>
    <poly id="1001795329" type="natural.tree_row" color="140,196,107" fill="0" layer="-4.00" shape="2994.033160,2101.501840 2947.757648,2124.891258"/>
    <poly id="1001795330" type="natural.tree_row" color="140,196,107" fill="0" layer="-4.00" shape="2949.037822,2133.053432 2962.240313,2158.710203"/>
    <poly id="1001795331" type="natural.tree_row" color="140,196,107" fill="0" layer="-4.00" shape="2911.467494,2138.187707 2920.540032,2133.945713"/>
    <poly id="1001795332" type="natural.tree_row" color="140,196,107" fill="0" layer="-4.00" shape="2927.898250,2130.084038 2935.890990,2125.885931"/>
    <poly id="1001795333" type="natural.tree_row" color="140,196,107" fill="0" layer="-4.00" shape="2929.879737,2174.010681 2948.236321,2164.458850"/>
    <poly id="1001795334" type="natural.tree_row" color="140,196,107" fill="0" layer="-4.00" shape="3003.328337,2096.411467 3017.666288,2089.097718 3018.022510,2098.122885"/>
    <poly id="1001797770" type="man_made.courtyard" color="255,230,230" fill="1" layer="-1.00" shape="3247.184814,1638.581258 3248.965926,1634.734404 3252.561545,1631.765161 3257.392811,1629.556513 3262.135021,1629.161589 3267.111003,1630.024571 3270.706622,1632.101578 3272.398679,1639.020063 3270.539643,1642.779157 3266.576669,1645.763031 3262.023702,1647.635265 3256.802818,1648.191085 3252.517017,1647.562131 3249.132905,1645.031689 3248.375932,1642.515874 3247.184814,1638.581258"/>
    <poly id="1001941217" type="building.university" color="255,230,230" fill="1" layer="-1.00" shape="2664.649919,1617.767311 2669.648164,1616.348513 2672.063797,1625.270858 2694.171847,1619.273871 2702.710052,1650.809289 2699.459523,1651.716154 2705.125685,1673.144501 2678.809758,1680.019134 2668.434781,1640.160955 2666.264051,1640.775282 2664.950481,1635.933804 2663.648043,1631.077701 2668.501573,1629.702781 2664.649919,1617.767311"/>
    <poly id="1002531075" type="building.dormitory" color="255,230,230" fill="1" layer="-1.00" shape="3027.629382,2122.316810 3043.125055,2115.529633 3048.212356,2113.233111 3085.960795,2096.265192 3078.958799,2080.847815 3045.718799,2095.709347 3039.685283,2081.476797 3038.683408,2081.959504 3037.347574,2079.209538 3031.592356,2081.740092 3030.902175,2080.379736 3029.688793,2080.979463 3028.653521,2081.491425 3029.310306,2082.807898 3028.608994,2083.115075 3029.922564,2085.996690 3024.423381,2088.512618 3030.701800,2102.730551 3020.939081,2107.045668 3027.629382,2122.316810"/>
    <poly id="1002857130" type="leisure.pitch" color="207,245,201" fill="1" layer="-2.00" shape="2956.184533,1858.322471 2973.093964,1840.374975 2964.143877,1831.949755 2947.256710,1849.897236 2956.184533,1858.322471"/>
    <poly id="1002857130#1" type="sport.volleyball" color="79,230,125" fill="1" layer="-2.00" shape="2956.184533,1858.322471 2973.093964,1840.374975 2964.143877,1831.949755 2947.256710,1849.897236 2956.184533,1858.322471"/>
    <poly id="1002857138" type="building.university" color="255,230,230" fill="1" layer="-1.00" shape="3127.238063,1530.240979 3157.016026,1522.298705 3156.515089,1520.382614 3161.023528,1519.051590 3156.626408,1503.050053 3180.003501,1496.365690 3172.600755,1469.891559 3173.201880,1469.672160 3170.129462,1458.424333 3155.535477,1462.695288 3154.600393,1459.594458 3106.632825,1472.436583 3109.972409,1486.668251 3105.130012,1488.511203 3114.224814,1522.532732 3124.733374,1519.695162 3127.238063,1530.240979"/>
    <poly id="1002857141" type="leisure.garden" color="207,245,201" fill="1" layer="-2.00" shape="2938.061720,1837.332533 2943.304868,1856.684230 2926.529021,1860.692069 2917.879496,1848.200488 2916.855357,1841.940077 2919.115143,1841.413500 2918.502885,1840.360347 2938.061720,1837.332533"/>
    <poly id="1007453778" type="building.dormitory" color="255,230,230" fill="1" layer="-1.00" shape="2750.989316,2501.572415 2751.111767,2500.372911 2751.712892,2494.170596 2753.905886,2494.390017 2754.117393,2492.166547 2756.722269,2492.415225 2757.445846,2484.984156 2785.242323,2487.719608 2786.611553,2473.749796 2781.724627,2473.267070 2782.158773,2468.864023 2783.550267,2454.587049 2777.828445,2453.914159 2773.743019,2461.842558 2762.243716,2461.198924 2753.315893,2454.206720 2753.471740,2451.646814 2755.208324,2433.946911 2807.339242,2439.037458 2800.749128,2506.443576 2750.989316,2501.572415"/>
    <poly id="1008923397" type="landuse.recreation_ground" color="194,194,130" fill="1" layer="-3.00" shape="2905.200206,2129.952391 2896.684265,2114.052253 2896.918036,2112.121419 2897.953307,2112.267694 2898.854995,2091.964707 2917.590065,2086.289240 2921.541907,2084.797236 2979.773133,2067.551444 2985.439295,2065.532855 3012.757098,2057.473129 3018.957594,2070.316035 2994.545229,2083.451507 2989.179630,2085.996690 2936.926261,2114.213155 2933.263850,2115.924577 2905.200206,2129.952391"/>
    <poly id="1009976995" type="man_made.courtyard" color="255,230,230" fill="1" layer="-1.00" shape="3148.010279,1795.235777 3177.944091,1786.093871 3186.860782,1817.059368 3181.484050,1818.522077 3181.127828,1820.321210 3180.003501,1821.740038 3178.522952,1822.617663 3174.882805,1823.670814 3173.624894,1819.809261 3169.160983,1821.213462 3170.296442,1824.972626 3165.943849,1826.186676 3164.029154,1825.674727 3161.969744,1824.402169 3156.949235,1825.806371 3148.010279,1795.235777"/>
    <poly id="1010489478" type="amenity.parking" color="184,184,179" fill="1" layer="-1.00" shape="2941.546020,2327.601883 2936.091365,2327.514116 2930.291619,2323.359808 2926.439965,2323.272041 2926.284118,2330.527453 2920.061358,2330.381174 2919.783059,2342.727089 2922.933401,2342.800228 2922.577179,2358.773876 2925.738652,2358.847015 2925.015076,2391.116203 2924.992812,2392.388834 2924.970548,2393.471302 2915.886877,2393.193371 2915.207828,2407.909095 2923.478867,2408.274794 2924.157915,2408.772145 2924.480742,2409.605939 2924.491874,2410.659153 2924.369422,2411.931787 2939.686984,2413.131280 2941.546020,2327.601883"/>
    <poly id="1010489484" type="amenity.parking" color="184,184,179" fill="1" layer="-1.00" shape="2861.752209,2392.652137 2864.713307,2392.783788 2869.856268,2393.032463 2870.167962,2391.511157 2870.479657,2389.960595 2870.824747,2374.454991 2871.002859,2364.288593 2871.370213,2348.373448 2887.233240,2348.739145 2887.467011,2338.528891 2871.693039,2338.177822 2872.049262,2322.672299 2888.012477,2323.037995 2888.246248,2312.842395 2872.594727,2312.476700 2872.761707,2305.031139 2864.045390,2304.855606 2861.551834,2336.773547 2860.639014,2347.876101 2859.904305,2369.554640 2859.726194,2388.819616 2860.527695,2388.907384 2861.229007,2389.185315 2861.718813,2389.624153 2861.896924,2390.326294 2861.752209,2392.652137"/>
    <poly id="1010489487" type="amenity.parking" color="184,184,179" fill="1" layer="-1.00" shape="2848.215759,2398.444805 2852.824386,2393.251883 2852.089677,2392.696021 2851.444024,2391.862228 2851.132329,2390.750504 2850.943086,2389.375478 2851.032142,2385.425935 2851.065538,2384.899329 2851.399496,2384.460491 2851.800246,2384.226444 2852.468163,2384.226444 2853.247400,2384.636026 2857.778103,2388.848872 2861.407118,2264.073345 2865.403488,2257.812669 2869.054768,2257.812669 2869.522309,2250.528055 2857.844895,2228.922917 2792.077340,2266.384530 2752.302886,2194.328465 2750.410454,2194.065167 2746.458612,2206.132985 2741.215464,2204.523942 2724.116790,2255.618507 2688.861908,2243.872439 2693.648646,2228.952172 2686.357219,2226.172910 2681.559349,2240.668968 2680.969356,2240.873756 2680.312571,2240.946894 2679.477675,2240.888384 2678.698438,2240.405669 2676.438653,2238.738109 2672.765109,2250.762099 2673.889436,2250.440289 2675.013763,2250.337894 2676.505444,2250.337894 2678.130709,2250.688960 2678.687306,2251.259442 2678.409008,2252.532055 2677.262417,2255.852551 2711.214862,2267.276824 2710.680528,2269.090666 2776.303368,2291.251748 2792.912236,2292.948572 2792.578277,2294.908697 2809.387520,2296.678661 2831.829530,2299.180016 2831.684814,2301.388814 2835.592129,2301.666743 2835.046663,2295.128114 2835.937219,2276.521571 2835.124587,2276.975032 2834.055920,2277.135937 2824.293200,2276.916521 2819.528726,2276.477688 2819.139108,2275.131933 2838.530963,2264.000206 2838.386248,2274.634589 2838.341720,2277.750304 2837.451164,2309.989970 2836.683060,2334.257556 2838.842658,2335.515551 2839.710950,2336.758920 2840.501318,2338.411868 2840.913200,2340.108700 2840.378867,2342.507671 2839.365859,2344.365410 2838.241532,2345.330850 2837.172865,2346.135383 2836.527212,2376.327364 2836.427025,2384.387352 2837.718331,2386.552286 2830.482564,2392.549741 2838.230401,2400.799905 2844.653535,2395.329051 2846.167480,2397.055149 2848.215759,2398.444805"/>
    <poly id="1010489499" type="natural.tree_row" color="140,196,107" fill="0" layer="-4.00" shape="2721.367199,2295.537693 2742.740541,2297.336912"/>
    <poly id="1010489513" type="leisure.outdoor_seating" color="207,245,201" fill="1" layer="-2.00" shape="2757.323395,2302.324994 2759.171298,2302.924734 2760.785431,2309.360973 2756.833589,2309.112300 2754.584935,2308.980650 2755.007949,2304.211982 2755.876241,2304.036448 2756.610950,2303.539103 2757.200943,2302.793084 2757.323395,2302.324994"/>
    <poly id="1010489527" type="building.retail" color="255,230,230" fill="1" layer="-1.00" shape="2617.094232,2429.192810 2624.062832,2408.113886 2634.627052,2409.196356 2631.788405,2430.567842 2617.094232,2429.192810"/>
    <poly id="1010489527#1" type="shop.convenience" color="237,199,255" fill="1" layer="-1.00" shape="2617.094232,2429.192810 2624.062832,2408.113886 2634.627052,2409.196356 2631.788405,2430.567842 2617.094232,2429.192810"/>
    <poly id="1010489886" type="building.garage" color="255,230,230" fill="1" layer="-1.00" shape="2830.760863,2311.189451 2836.093066,2311.511263 2836.683060,2301.710626 2835.592129,2301.666743 2831.684814,2301.388814 2830.760863,2311.189451"/>
    <poly id="1010491191" type="amenity.parking" color="184,184,179" fill="1" layer="-1.00" shape="2032.266155,2585.903811 2038.822873,2571.026911 2058.826986,2579.569789 2057.012478,2583.753462 2049.698787,2600.634452 2047.784092,2599.098486 2046.971460,2598.922947 2046.103168,2599.186255 2044.444508,2600.371144 2037.431380,2593.598265 2038.377595,2592.310979 2039.156832,2590.365423 2038.878533,2589.648640 2032.266155,2585.903811"/>
    <poly id="103686985" type="amenity.parking" color="184,184,179" fill="1" layer="-1.00" shape="2085.387816,2439.666463 2116.657461,2452.524496 2125.618680,2430.714122 2189.104186,2456.810511 2180.198627,2478.474662 2143.184896,2463.246851 2133.689343,2486.344568 2108.853965,2476.134171 2105.881734,2483.360439 2072.986825,2469.844103 2085.387816,2439.666463"/>
    <poly id="103686985#1" type="building.yes" color="255,230,230" fill="1" layer="-1.00" shape="2085.387816,2439.666463 2116.657461,2452.524496 2125.618680,2430.714122 2189.104186,2456.810511 2180.198627,2478.474662 2143.184896,2463.246851 2133.689343,2486.344568 2108.853965,2476.134171 2105.881734,2483.360439 2072.986825,2469.844103 2085.387816,2439.666463"/>
    <poly id="1039908831" type="building.yes" color="255,230,230" fill="1" layer="-1.00" shape="3273.022068,1506.370297 3272.710373,1504.995394 3271.163032,1498.486548 3261.745403,1501.236352 3241.997326,1429.215147 3282.172530,1417.557825 3299.504975,1491.129364 3291.423179,1493.337982 3293.460326,1500.973073 3273.022068,1506.370297"/>
    <poly id="1039908831#1" type="leisure.sports_hall" color="207,245,201" fill="1" layer="-2.00" shape="3273.022068,1506.370297 3272.710373,1504.995394 3271.163032,1498.486548 3261.745403,1501.236352 3241.997326,1429.215147 3282.172530,1417.557825 3299.504975,1491.129364 3291.423179,1493.337982 3293.460326,1500.973073 3273.022068,1506.370297"/>
    <poly id="1039983184" type="landuse.grass" color="194,194,130" fill="1" layer="-3.00" shape="1780.149772,1934.413197 1788.109116,1926.441342 1787.686102,1925.168772 1767.492746,1924.305764 1767.058600,1926.587615 1766.357288,1928.152731 1773.325888,1932.277617 1780.149772,1934.413197"/>
    <poly id="1039983185" type="landuse.grass" color="194,194,130" fill="1" layer="-3.00" shape="1765.355412,1935.832042 1769.618949,1947.212061 1776.164535,1940.673668 1776.164535,1939.240195 1768.483490,1936.109960 1765.355412,1935.832042"/>
    <poly id="1039983186" type="landuse.grass" color="194,194,130" fill="1" layer="-3.00" shape="1760.524146,1937.397159 1755.114019,1939.956931 1756.249478,1959.162557 1763.507509,1952.331610 1764.498252,1949.771835 1760.524146,1937.397159"/>
    <poly id="1039983187" type="landuse.grass" color="194,194,130" fill="1" layer="-3.00" shape="1748.713148,1932.979726 1748.713148,1954.745114 1701.213122,1912.077392 1700.790107,1909.517628 1702.782726,1906.826218 1704.764213,1905.816940 1710.174341,1904.544372 1719.235747,1904.529745 1720.193095,1910.731687 1722.497408,1914.827312 1728.185834,1922.228695 1733.785205,1927.582268 1740.197207,1931.399982 1746.063744,1932.994353 1748.713148,1932.979726"/>
    <poly id="1039983188" type="landuse.grass" color="194,194,130" fill="1" layer="-3.00" shape="1760.947160,1964.633169 1796.502606,1924.378900 1827.939230,1926.368206 1777.589424,1979.567661 1760.947160,1964.633169"/>
    <poly id="1039983189" type="landuse.grass" color="194,194,130" fill="1" layer="-3.00" shape="1869.806490,1847.118081 1878.789973,1845.801639 1882.886531,1845.801639 1885.402351,1846.196571 1887.517421,1848.449150 1888.174206,1850.818746 1888.574957,1854.914345 1885.669518,1861.130884 1876.942070,1874.222195 1853.932331,1895.109821 1839.928339,1910.044208 1835.698198,1881.886837 1843.356979,1873.037394 1845.349598,1867.874004 1846.663168,1863.120177 1857.772853,1854.387768 1869.806490,1847.118081"/>
    <poly id="104205386" type="building.dormitory" color="255,230,230" fill="1" layer="-1.00" shape="2127.989785,2509.895811 2135.225552,2494.155968 2165.304079,2507.979528 2158.068312,2523.719394 2127.989785,2509.895811"/>
    <poly id="104205387" type="building.apartments" color="255,230,230" fill="1" layer="-1.00" shape="2112.494112,2448.706580 2081.146544,2437.165073 2091.321145,2406.899765 2102.608941,2373.299385 2105.993054,2367.799290 2110.802056,2364.200826 2116.969156,2362.284571 2141.125485,2364.347105 2112.494112,2448.706580"/>
    <poly id="104205388" type="amenity.place_of_worship" color="237,199,199" fill="1" layer="-1.00" shape="2101.250844,2637.395323 2098.991058,2636.342085 2097.644092,2636.912589 2094.015077,2635.288847 2093.447347,2633.884530 2091.220958,2632.831292 2093.124521,2628.164865 2086.278372,2624.829614 2086.000073,2625.385489 2083.161426,2624.039686 2079.832974,2622.445203 2080.957300,2620.148562 2074.278131,2616.637775 2076.081507,2612.439460 2058.036617,2604.452427 2059.016229,2602.155791 2057.724923,2601.556032 2061.621105,2593.188674 2062.656376,2593.656777 2063.992210,2590.540962 2066.686142,2591.755106 2112.527508,2612.907565 2105.870603,2627.360309 2107.083985,2627.916184 2105.547776,2631.324577 2104.300998,2630.754073 2101.250844,2637.395323"/>
    <poly id="104205388#1" type="building.yes" color="255,230,230" fill="1" layer="-1.00" shape="2101.250844,2637.395323 2098.991058,2636.342085 2097.644092,2636.912589 2094.015077,2635.288847 2093.447347,2633.884530 2091.220958,2632.831292 2093.124521,2628.164865 2086.278372,2624.829614 2086.000073,2625.385489 2083.161426,2624.039686 2079.832974,2622.445203 2080.957300,2620.148562 2074.278131,2616.637775 2076.081507,2612.439460 2058.036617,2604.452427 2059.016229,2602.155791 2057.724923,2601.556032 2061.621105,2593.188674 2062.656376,2593.656777 2063.992210,2590.540962 2066.686142,2591.755106 2112.527508,2612.907565 2105.870603,2627.360309 2107.083985,2627.916184 2105.547776,2631.324577 2104.300998,2630.754073 2101.250844,2637.395323"/>
    <poly id="104205389" type="building.residential" color="255,230,230" fill="1" layer="-1.00" shape="2052.593094,2525.284605 2066.931045,2484.238124 2098.122766,2495.121422 2083.795948,2536.182576 2052.593094,2525.284605"/>
    <poly id="104205390" type="amenity.parking" color="184,184,179" fill="1" layer="-1.00" shape="2089.061359,2534.573479 2099.759162,2511.621930 2150.342739,2535.187862 2139.644936,2558.139466 2089.061359,2534.573479"/>
    <poly id="104205390#1" type="building.parking" color="255,230,230" fill="1" layer="-1.00" shape="2089.061359,2534.573479 2099.759162,2511.621930 2150.342739,2535.187862 2139.644936,2558.139466 2089.061359,2534.573479"/>
    <poly id="104205391" type="building.residential" color="255,230,230" fill="1" layer="-1.00" shape="2054.207227,2540.571025 2045.045633,2561.343040 2118.839323,2593.905458 2128.000917,2573.133373 2054.207227,2540.571025"/>
    <poly id="104206036" type="building.university" color="255,230,230" fill="1" layer="-1.00" shape="2104.356657,2354.604927 2110.746396,2357.106296 2108.464347,2362.942826 2102.074608,2360.456084 2104.356657,2354.604927"/>
    <poly id="104206036#1" type="historic.ruins" color="128,255,128" fill="1" layer="-1.00" shape="2104.356657,2354.604927 2110.746396,2357.106296 2108.464347,2362.942826 2102.074608,2360.456084 2104.356657,2354.604927"/>
    <poly id="104431157" type="building.apartments" color="255,230,230" fill="1" layer="-1.00" shape="2139.400033,2644.036578 2146.869571,2627.974697 2174.966610,2641.023144 2179.975988,2630.212826 2152.669316,2617.544728 2159.893951,2601.980252 2211.078653,2625.751196 2203.987602,2641.023144 2192.900180,2635.859351 2187.712692,2647.020755 2199.256523,2652.374723 2191.831513,2668.392758 2139.400033,2644.036578"/>
    <poly id="104431158" type="amenity.place_of_worship" color="237,199,199" fill="1" layer="-1.00" shape="2306.245686,2467.386590 2302.906101,2466.947748 2304.041560,2452.188051 2305.822672,2433.039975 2314.238425,2433.712863 2314.594648,2429.602394 2310.153000,2429.046530 2306.056443,2428.695458 2307.414541,2409.167100 2311.054688,2409.430404 2314.694835,2409.547427 2315.997273,2391.481901 2339.196255,2393.134859 2366.057648,2395.182772 2365.924065,2396.470031 2367.126315,2398.839759 2366.992732,2402.482120 2365.300676,2405.597876 2363.341453,2407.031417 2360.602993,2407.250836 2358.387735,2436.945653 2364.799738,2437.603913 2363.141078,2456.342414 2361.749584,2472.038312 2359.456403,2471.892032 2358.153965,2481.765979 2340.554353,2480.522592 2335.010642,2483.199530 2328.476188,2482.731432 2322.130977,2478.942760 2313.347869,2477.816399 2305.232679,2477.070367 2306.245686,2467.386590"/>
    <poly id="104431158#1" type="building.yes" color="255,230,230" fill="1" layer="-1.00" shape="2306.245686,2467.386590 2302.906101,2466.947748 2304.041560,2452.188051 2305.822672,2433.039975 2314.238425,2433.712863 2314.594648,2429.602394 2310.153000,2429.046530 2306.056443,2428.695458 2307.414541,2409.167100 2311.054688,2409.430404 2314.694835,2409.547427 2315.997273,2391.481901 2339.196255,2393.134859 2366.057648,2395.182772 2365.924065,2396.470031 2367.126315,2398.839759 2366.992732,2402.482120 2365.300676,2405.597876 2363.341453,2407.031417 2360.602993,2407.250836 2358.387735,2436.945653 2364.799738,2437.603913 2363.141078,2456.342414 2361.749584,2472.038312 2359.456403,2471.892032 2358.153965,2481.765979 2340.554353,2480.522592 2335.010642,2483.199530 2328.476188,2482.731432 2322.130977,2478.942760 2313.347869,2477.816399 2305.232679,2477.070367 2306.245686,2467.386590"/>
    <poly id="104431159" type="building.cathedral" color="255,230,230" fill="1" layer="-1.00" shape="2269.354407,2496.759769 2281.154273,2470.941208 2301.069330,2480.083750 2314.683703,2486.344568 2312.958251,2490.235639 2311.299591,2493.702497 2336.647039,2505.361096 2330.713710,2518.263099 2305.254942,2506.545973 2302.694594,2512.104658 2269.354407,2496.759769"/>
    <poly id="104431161" type="building.cathedral" color="255,230,230" fill="1" layer="-1.00" shape="2236.414969,2431.869734 2255.573054,2388.702593 2260.226208,2390.765132 2262.931272,2384.650654 2271.090991,2388.278382 2266.048218,2399.644297 2275.699618,2403.930289 2264.011071,2430.246026 2257.766048,2427.481334 2252.623087,2439.066714 2236.414969,2431.869734"/>
    <poly id="104431162" type="building.apartments" color="255,230,230" fill="1" layer="-1.00" shape="2171.326463,2572.826181 2195.393737,2523.148896 2230.548432,2540.176064 2233.921413,2533.227689 2251.331781,2541.668137 2223.891527,2598.293932 2171.326463,2572.826181"/>
    <poly id="104431166" type="amenity.place_of_worship" color="237,199,199" fill="1" layer="-1.00" shape="2213.549946,2514.240364 2220.997220,2497.973902 2252.823462,2512.572758 2261.116764,2494.477786 2275.844333,2501.221341 2260.103757,2535.582822 2213.549946,2514.240364"/>
    <poly id="104431166#1" type="building.yes" color="255,230,230" fill="1" layer="-1.00" shape="2213.549946,2514.240364 2220.997220,2497.973902 2252.823462,2512.572758 2261.116764,2494.477786 2275.844333,2501.221341 2260.103757,2535.582822 2213.549946,2514.240364"/>
    <poly id="104431168" type="building.apartments" color="255,230,230" fill="1" layer="-1.00" shape="2222.243998,2630.417622 2230.136550,2613.638979 2239.476255,2618.042090 2239.008714,2619.022185 2275.098492,2636.020262 2275.566034,2635.025537 2284.972531,2639.457915 2277.068847,2656.236603 2267.662350,2651.804218 2268.118760,2650.838748 2232.028981,2633.840645 2231.572572,2634.820741 2222.243998,2630.417622"/>
    <poly id="1047759657" type="landuse.grass" color="194,194,130" fill="1" layer="-3.00" shape="2313.147494,1690.038555 2315.874822,1687.537355 2318.446302,1686.074666 2321.763623,1684.465708 2324.535478,1683.763617 2326.995639,1683.163915 2328.409397,1682.710481 2328.977126,1682.227794 2329.979001,1680.545702 2330.201640,1679.887492 2330.312960,1678.614953 2329.455800,1677.386295 2323.555867,1667.264499 2320.683824,1661.369874 2318.891580,1657.405997 2318.034420,1654.422120 2317.143864,1651.218841 2316.620663,1647.898549 2315.986141,1644.724525 2315.351620,1640.848416 2294.078466,1656.250476 2280.308245,1665.436141 2269.699497,1671.901217 2269.365539,1672.647187 2269.554782,1674.139128 2269.855344,1675.470174 2270.411942,1676.143010 2273.473228,1678.468684 2277.692237,1680.297045 2290.416054,1684.772873 2307.514728,1690.477362 2310.353375,1690.550496 2313.147494,1690.038555"/>
    <poly id="1047759658" type="landuse.grass" color="194,194,130" fill="1" layer="-3.00" shape="2243.172062,1685.036157 2219.394219,1694.543641 2212.670522,1713.426995 2204.132317,1738.482965 2221.186463,1744.289874 2224.392464,1734.855476 2211.212237,1730.306491 2218.592719,1708.731750 2239.431728,1715.884320 2241.101520,1713.046694 2243.917903,1711.057432 2247.279752,1710.267577 2250.686128,1710.823401 2253.547039,1712.534752 2255.584186,1715.167600 2256.519269,1718.370900 2256.218707,1721.691216 2278.315626,1729.428873 2282.378787,1717.347014 2289.659082,1695.801555 2315.162377,1704.884869 2316.487079,1701.754708 2318.168003,1698.492906 2291.796416,1689.541240 2272.126262,1682.608093 2265.447093,1678.541819 2263.510133,1677.532564 2262.196563,1677.269280 2259.703007,1677.196146 2252.311393,1680.808986 2243.172062,1685.036157"/>
    <poly id="1047759665" type="landuse.grass" color="194,194,130" fill="1" layer="-3.00" shape="2201.215746,1739.038789 2214.796724,1698.800071 2214.507294,1697.688426 2213.082404,1697.205738 2211.779966,1697.161857 2196.250897,1702.793219 2184.940837,1735.981753 2191.620006,1738.307441 2192.109812,1736.830117 2193.601493,1736.201157 2195.015251,1736.581458 2201.215746,1739.038789"/>
    <poly id="1047759666" type="landuse.grass" color="194,194,130" fill="1" layer="-3.00" shape="2215.164079,1763.685268 2211.134313,1762.500481 2179.452786,1751.720382 2168.031406,1787.103137 2169.077809,1788.039268 2189.304561,1794.943236 2196.540328,1773.543877 2209.442257,1777.902731 2215.164079,1763.685268"/>
    <poly id="1047759667" type="landuse.grass" color="194,194,130" fill="1" layer="-3.00" shape="2121.566651,803.498278 2121.344012,802.606118 2120.676095,801.860214 2119.629692,801.333693 2118.438573,801.421446 2117.314246,802.459862 2117.692732,804.258809 2133.867454,854.073666 2134.424052,854.863451 2134.858198,855.126713 2136.027053,855.082836 2137.017796,854.541687 2137.707977,853.649522 2137.763637,852.845111 2121.566651,803.498278"/>
    <poly id="1054312730" type="building.yes" color="255,230,230" fill="1" layer="-1.00" shape="1162.838668,1216.664983 1136.266706,1191.420203 1177.955855,1147.556454 1204.516686,1172.801122 1162.838668,1216.664983"/>
    <poly id="1084687676" type="amenity.parking" color="184,184,179" fill="1" layer="-1.00" shape="2795.695223,2524.787248 2797.253696,2510.232258 2740.313776,2503.313160 2738.332289,2499.495224 2725.140930,2498.207951 2724.606596,2505.916964 2713.296536,2504.468781 2712.584091,2512.602014 2721.812477,2513.567470 2721.088900,2520.384178 2712.606355,2523.748650 2701.518934,2531.633220 2716.469141,2551.717693 2726.721667,2551.205706 2742.128284,2539.269118 2731.296898,2527.976183 2732.332169,2516.771030 2795.695223,2524.787248"/>
    <poly id="1084693859" type="leisure.garden" color="207,245,201" fill="1" layer="-2.00" shape="2745.267494,2484.457545 2747.382564,2460.555290 2747.549543,2460.101820 2748.072745,2459.692235 2748.718398,2459.692235 2751.668364,2461.959582 2752.436469,2464.007509 2751.701760,2464.095278 2751.902135,2467.254937 2752.714768,2467.211053 2756.911512,2476.646153 2756.989436,2477.523837 2756.766797,2478.328381 2756.388311,2479.103669 2755.842845,2479.952097 2755.330776,2479.542511 2752.302886,2482.833828 2752.915143,2483.316555 2749.987440,2486.198287 2749.174808,2486.622502 2747.928030,2486.768782 2746.881626,2486.593245 2745.946543,2485.817957 2745.467869,2485.145065 2745.267494,2484.457545"/>