<?xml version="1.0" encoding="UTF-8"?>

<!-- generated on 2023-04-15 21:48:34 by Eclipse SUMO netedit Version 1.16.0
<configuration xmlns:xsi="http://www.w3.org/2001/XMLSchema-instance" xsi:noNamespaceSchemaLocation="http://sumo.dlr.de/xsd/netconvertConfiguration.xsd">

    <input>
        <sumo-net-file value="/home/marcelo/code/CS-2002/scenario/2023-01-27-13-15-43/osm.net.new.xml"/>
    </input>

    <output>
        <output-file value="/home/marcelo/code/CS-2002/scenario/2023-01-27-13-15-43/osm.net.new.xml"/>
        <output.street-names value="true"/>
    </output>

    <processing>
        <geometry.min-radius.fix.railways value="false"/>
        <geometry.max-grade.fix value="false"/>
        <offset.disable-normalization value="true"/>
        <lefthand value="0"/>
    </processing>

    <junctions>
        <no-turnarounds value="true"/>
        <junctions.corner-detail value="5"/>
        <junctions.limit-turn-speed value="5.50"/>
        <rectangular-lane-cut value="0"/>
    </junctions>

    <pedestrian>
        <walkingareas value="0"/>
    </pedestrian>

</configuration>
-->

<net version="1.16" junctionCornerDetail="5" limitTurnSpeed="5.50" xmlns:xsi="http://www.w3.org/2001/XMLSchema-instance" xsi:noNamespaceSchemaLocation="http://sumo.dlr.de/xsd/net_file.xsd">

    <location netOffset="8902306.57,-4928729.73" convBoundary="587.54,844.36,3496.58,2962.25" origBoundary="-79.970781,40.430703,-79.929640,40.451455" projParameter="+proj=merc +a=6378137 +b=6378137 +lat_ts=0.0 +lon_0=0.0 +x_0=0.0 +y_0=0 +k=1.0 +units=m +nadgrids=@null +wktext +no_defs"/>

    <type id="highway.bridleway" priority="1" numLanes="1" speed="2.78" allow="pedestrian" oneway="1" width="2.00"/>
    <type id="highway.bus_guideway" priority="1" numLanes="1" speed="27.78" allow="bus" oneway="1"/>
    <type id="highway.cycleway" priority="1" numLanes="1" speed="5.56" allow="bicycle" oneway="0" width="1.00"/>
    <type id="highway.footway" priority="1" numLanes="1" speed="2.78" allow="pedestrian" oneway="1" width="2.00"/>
    <type id="highway.ford" priority="1" numLanes="1" speed="2.78" allow="army" oneway="0"/>
    <type id="highway.living_street" priority="2" numLanes="1" speed="2.78" disallow="tram rail_urban rail rail_electric rail_fast ship" oneway="0"/>
    <type id="highway.motorway" priority="14" numLanes="2" speed="39.44" allow="private emergency authority army vip passenger hov taxi bus coach delivery truck trailer motorcycle evehicle custom1 custom2" oneway="1"/>
    <type id="highway.motorway_link" priority="9" numLanes="1" speed="22.22" allow="private emergency authority army vip passenger hov taxi bus coach delivery truck trailer motorcycle evehicle custom1 custom2" oneway="1"/>
    <type id="highway.path" priority="1" numLanes="1" speed="5.56" allow="pedestrian bicycle" oneway="0" width="2.00"/>
    <type id="highway.pedestrian" priority="1" numLanes="1" speed="2.78" allow="pedestrian" oneway="1" width="2.00"/>
    <type id="highway.primary" priority="12" numLanes="2" speed="27.78" disallow="tram rail_urban rail rail_electric rail_fast ship" oneway="0"/>
    <type id="highway.primary_link" priority="7" numLanes="1" speed="22.22" disallow="tram rail_urban rail rail_electric rail_fast ship" oneway="0"/>
    <type id="highway.raceway" priority="15" numLanes="2" speed="83.33" allow="vip" oneway="0"/>
    <type id="highway.residential" priority="3" numLanes="1" speed="13.89" disallow="tram rail_urban rail rail_electric rail_fast ship" oneway="0"/>
    <type id="highway.secondary" priority="11" numLanes="1" speed="27.78" disallow="tram rail_urban rail rail_electric rail_fast ship" oneway="0"/>
    <type id="highway.secondary_link" priority="6" numLanes="1" speed="22.22" disallow="tram rail_urban rail rail_electric rail_fast ship" oneway="0"/>
    <type id="highway.service" priority="1" numLanes="1" speed="5.56" allow="pedestrian delivery bicycle" oneway="0"/>
    <type id="highway.stairs" priority="1" numLanes="1" speed="1.39" allow="pedestrian" oneway="1" width="2.00"/>
    <type id="highway.step" priority="1" numLanes="1" speed="1.39" allow="pedestrian" oneway="1" width="2.00"/>
    <type id="highway.steps" priority="1" numLanes="1" speed="1.39" allow="pedestrian" oneway="1" width="2.00"/>
    <type id="highway.tertiary" priority="10" numLanes="1" speed="22.22" disallow="tram rail_urban rail rail_electric rail_fast ship" oneway="0"/>
    <type id="highway.tertiary_link" priority="5" numLanes="1" speed="22.22" disallow="tram rail_urban rail rail_electric rail_fast ship" oneway="0"/>
    <type id="highway.track" priority="1" numLanes="1" speed="5.56" allow="pedestrian motorcycle moped bicycle" oneway="0"/>
    <type id="highway.trunk" priority="13" numLanes="2" speed="27.78" disallow="pedestrian bicycle tram rail_urban rail rail_electric rail_fast ship" oneway="0"/>
    <type id="highway.trunk_link" priority="8" numLanes="1" speed="22.22" disallow="pedestrian bicycle tram rail_urban rail rail_electric rail_fast ship" oneway="0"/>
    <type id="highway.unclassified" priority="4" numLanes="1" speed="13.89" disallow="tram rail_urban rail rail_electric rail_fast ship" oneway="0"/>
    <type id="highway.unsurfaced" priority="1" numLanes="1" speed="8.33" disallow="tram rail_urban rail rail_electric rail_fast ship" oneway="0"/>
    <type id="railway.highspeed" priority="21" numLanes="1" speed="69.44" allow="rail_fast" oneway="1"/>
    <type id="railway.light_rail" priority="19" numLanes="1" speed="27.78" allow="rail_urban" oneway="1"/>
    <type id="railway.preserved" priority="16" numLanes="1" speed="27.78" allow="rail" oneway="1"/>
    <type id="railway.rail" priority="20" numLanes="1" speed="44.44" allow="rail" oneway="1"/>
    <type id="railway.subway" priority="18" numLanes="1" speed="27.78" allow="rail_urban" oneway="1"/>
    <type id="railway.tram" priority="17" numLanes="1" speed="13.89" allow="tram" oneway="1"/>

    <edge id=":104383352_0" function="internal">
        <lane id=":104383352_0_0" index="0" disallow="tram rail_urban rail rail_electric rail_fast ship" speed="11.18" length="0.30" shape="3209.68,2018.36 3209.37,2018.42"/>
        <lane id=":104383352_0_1" index="1" disallow="tram rail_urban rail rail_electric rail_fast ship" speed="11.18" length="0.30" shape="3208.96,2015.24 3208.67,2015.30">
            <neigh lane=":104383352_2_1"/>
        </lane>
    </edge>
    <edge id=":104383352_2" function="internal">
        <lane id=":104383352_2_0" index="0" disallow="tram rail_urban rail rail_electric rail_fast ship" speed="11.18" length="0.30" shape="3207.25,2009.06 3207.53,2009.00"/>
        <lane id=":104383352_2_1" index="1" disallow="tram rail_urban rail rail_electric rail_fast ship" speed="11.18" length="0.30" shape="3207.96,2012.18 3208.25,2012.12">
            <neigh lane=":104383352_0_1"/>
        </lane>
    </edge>
    <edge id=":104507069_0" function="internal">
        <lane id=":104507069_0_0" index="0" disallow="tram rail_urban rail rail_electric rail_fast ship" speed="6.51" length="9.02" shape="2080.37,1871.90 2079.92,1874.34 2080.34,1876.33 2081.66,1877.89 2083.86,1879.01"/>
        <lane id=":104507069_0_1" index="1" disallow="tram rail_urban rail rail_electric rail_fast ship" speed="8.00" length="14.18" shape="2077.34,1870.88 2076.62,1874.69 2077.30,1877.83 2079.37,1880.27 2082.83,1882.04"/>
        <lane id=":104507069_0_2" index="2" disallow="tram rail_urban rail rail_electric rail_fast ship" speed="8.67" length="16.84" shape="2077.34,1870.88 2076.17,1876.02 2076.53,1880.10 2078.40,1883.11 2081.79,1885.07"/>
    </edge>
    <edge id=":104507069_3" function="internal">
        <lane id=":104507069_3_0" index="0" disallow="tram rail_urban rail rail_electric rail_fast ship" speed="6.51" length="9.02" shape="2067.22,1873.35 2069.65,1873.80 2071.64,1873.37 2073.19,1872.05 2074.31,1869.85"/>
    </edge>
    <edge id=":104507069_4" function="internal">
        <lane id=":104507069_4_0" index="0" disallow="tram rail_urban rail rail_electric rail_fast ship" speed="11.18" length="17.57" shape="2067.22,1873.35 2083.86,1879.01"/>
        <lane id=":104507069_4_1" index="1" disallow="tram rail_urban rail rail_electric rail_fast ship" speed="11.18" length="17.57" shape="2066.19,1876.38 2082.83,1882.04"/>
        <lane id=":104507069_4_2" index="2" disallow="tram rail_urban rail rail_electric rail_fast ship" speed="11.18" length="17.57" shape="2065.17,1879.41 2081.79,1885.07"/>
    </edge>
    <edge id=":104507936_0" function="internal">
        <lane id=":104507936_0_0" index="0" disallow="tram rail_urban rail rail_electric rail_fast ship" speed="11.18" length="0.76" shape="1378.95,1713.52 1378.26,1713.84"/>
    </edge>
    <edge id=":104507936_1" function="internal">
        <lane id=":104507936_1_0" index="0" disallow="tram rail_urban rail rail_electric rail_fast ship" speed="11.18" length="0.25" shape="1376.96,1710.91 1377.03,1710.88 1377.07,1710.86 1377.12,1710.83 1377.18,1710.79"/>
    </edge>
    <edge id=":104580920_0" function="internal">
        <lane id=":104580920_0_0" index="0" disallow="tram rail_urban rail rail_electric rail_fast ship" speed="6.49" length="9.03" shape="1392.28,1439.97 1390.85,1442.00 1390.42,1443.99 1390.98,1445.95 1392.54,1447.87"/>
        <lane id=":104580920_0_1" index="1" disallow="tram rail_urban rail rail_electric rail_fast ship" speed="7.31" length="11.74" shape="1392.28,1439.97 1389.89,1443.01 1388.78,1445.74 1388.93,1448.14 1390.36,1450.22"/>
    </edge>
    <edge id=":104580920_2" function="internal">
        <lane id=":104580920_2_0" index="0" disallow="tram rail_urban rail rail_electric rail_fast ship" speed="11.18" length="17.65" shape="1392.28,1439.97 1380.28,1452.88">
            <neigh lane=":104580920_8_0"/>
        </lane>
    </edge>
    <edge id=":104580920_3" function="internal">
        <lane id=":104580920_3_0" index="0" disallow="tram rail_urban rail rail_electric rail_fast ship" speed="6.54" length="9.07" shape="1381.99,1438.07 1384.03,1439.48 1386.03,1439.90 1388.01,1439.33 1389.95,1437.77"/>
    </edge>
    <edge id=":104580920_4" function="internal">
        <lane id=":104580920_4_0" index="0" disallow="pedestrian tram rail_urban rail rail_electric rail_fast ship" speed="11.18" length="14.40" shape="1381.99,1438.07 1392.54,1447.87"/>
        <lane id=":104580920_4_1" index="1" disallow="tram rail_urban rail rail_electric rail_fast ship" speed="11.18" length="14.40" shape="1379.81,1440.41 1390.36,1450.22"/>
        <lane id=":104580920_4_2" index="2" disallow="tram rail_urban rail rail_electric rail_fast ship" speed="11.18" length="14.40" shape="1377.63,1442.75 1388.18,1452.56"/>
    </edge>
    <edge id=":104580920_7" function="internal">
        <lane id=":104580920_7_0" index="0" disallow="tram rail_urban rail rail_electric rail_fast ship" speed="7.36" length="11.75" shape="1377.63,1442.75 1380.21,1445.63 1381.51,1448.28 1381.54,1450.69 1380.28,1452.88"/>
    </edge>
    <edge id=":104580920_8" function="internal">
        <lane id=":104580920_8_0" index="0" disallow="tram rail_urban rail rail_electric rail_fast ship" speed="11.18" length="17.65" shape="1377.92,1450.72 1389.95,1437.77">
            <neigh lane=":104580920_2_0"/>
        </lane>
    </edge>
    <edge id=":104580920_9" function="internal">
        <lane id=":104580920_9_0" index="0" disallow="tram rail_urban rail rail_electric rail_fast ship" speed="7.99" length="4.13" shape="1377.92,1450.72 1380.94,1448.24 1381.16,1448.18"/>
        <lane id=":104580920_9_1" index="1" disallow="tram rail_urban rail rail_electric rail_fast ship" speed="7.31" length="2.00" shape="1377.92,1450.72 1379.56,1449.57"/>
    </edge>
    <edge id=":104580920_11" function="internal">
        <lane id=":104580920_11_0" index="0" disallow="tram rail_urban rail rail_electric rail_fast ship" speed="7.99" length="10.09" shape="1381.16,1448.18 1384.01,1447.33 1387.16,1447.99 1390.36,1450.22"/>
    </edge>
    <edge id=":104580920_12" function="internal">
        <lane id=":104580920_12_0" index="0" disallow="tram rail_urban rail rail_electric rail_fast ship" speed="7.31" length="9.74" shape="1379.56,1449.57 1379.99,1449.28 1382.39,1449.10 1385.12,1450.20 1388.18,1452.56"/>
    </edge>
    <edge id=":104663452_0" function="internal">
        <lane id=":104663452_0_0" index="0" disallow="pedestrian tram rail_urban rail rail_electric rail_fast ship" speed="6.85" length="8.99" shape="2253.45,2359.73 2251.50,2359.96 2249.90,2361.02 2248.65,2362.90 2247.75,2365.61"/>
    </edge>
    <edge id=":104663452_1" function="internal">
        <lane id=":104663452_1_0" index="0" disallow="pedestrian tram rail_urban rail rail_electric rail_fast ship" speed="11.18" length="11.75" shape="2253.45,2359.73 2241.79,2358.85"/>
        <lane id=":104663452_1_1" index="1" disallow="pedestrian tram rail_urban rail rail_electric rail_fast ship" speed="11.18" length="11.75" shape="2253.71,2356.54 2242.01,2355.66">
            <neigh lane=":104663452_8_1"/>
        </lane>
    </edge>
    <edge id=":104663452_3" function="internal">
        <lane id=":104663452_3_0" index="0" disallow="pedestrian tram rail_urban rail rail_electric rail_fast ship" speed="8.31" length="2.83" shape="2253.71,2356.54 2251.03,2355.62"/>
    </edge>
    <edge id=":104663452_11" function="internal">
        <lane id=":104663452_11_0" index="0" disallow="pedestrian tram rail_urban rail rail_electric rail_fast ship" speed="8.31" length="12.54" shape="2251.03,2355.62 2250.82,2355.55 2248.89,2353.14 2247.92,2349.30 2247.91,2344.04"/>
    </edge>
    <edge id=":104663452_4" function="internal">
        <lane id=":104663452_4_0" index="0" disallow="pedestrian tram rail_urban rail rail_electric rail_fast ship" speed="5.99" length="7.47" shape="2251.10,2344.29 2251.13,2346.75 2251.66,2348.54 2252.70,2349.68 2254.23,2350.16"/>
    </edge>
    <edge id=":104663452_5" function="internal">
        <lane id=":104663452_5_0" index="0" disallow="tram rail_urban rail rail_electric rail_fast ship" speed="11.18" length="21.61" shape="2251.10,2344.29 2250.24,2348.24 2248.57,2352.80 2246.54,2358.26 2244.63,2364.88"/>
    </edge>
    <edge id=":104663452_6" function="internal">
        <lane id=":104663452_6_0" index="0" disallow="pedestrian tram rail_urban rail rail_electric rail_fast ship" speed="8.59" length="16.39" shape="2251.10,2344.29 2250.18,2349.48 2248.35,2353.10 2245.63,2355.16 2242.01,2355.66"/>
    </edge>
    <edge id=":104663452_7" function="internal">
        <lane id=":104663452_7_0" index="0" disallow="pedestrian tram rail_urban rail rail_electric rail_fast ship" speed="6.39" length="8.59" shape="2242.46,2349.27 2244.68,2349.08 2246.33,2348.14 2247.40,2346.46 2247.91,2344.04"/>
    </edge>
    <edge id=":104663452_8" function="internal">
        <lane id=":104663452_8_0" index="0" disallow="pedestrian tram rail_urban rail rail_electric rail_fast ship" speed="11.18" length="11.75" shape="2242.46,2349.27 2254.23,2350.16"/>
        <lane id=":104663452_8_1" index="1" disallow="pedestrian tram rail_urban rail rail_electric rail_fast ship" speed="11.18" length="11.75" shape="2242.24,2352.46 2253.97,2353.35">
            <neigh lane=":104663452_1_1"/>
        </lane>
    </edge>
    <edge id=":104663452_10" function="internal">
        <lane id=":104663452_10_0" index="0" disallow="pedestrian tram rail_urban rail rail_electric rail_fast ship" speed="7.57" length="2.07" shape="2242.24,2352.46 2244.14,2353.29"/>
    </edge>
    <edge id=":104663452_12" function="internal">
        <lane id=":104663452_12_0" index="0" disallow="pedestrian tram rail_urban rail rail_electric rail_fast ship" speed="7.57" length="12.04" shape="2244.14,2353.29 2244.33,2353.38 2245.43,2355.75 2245.53,2359.59 2244.63,2364.88"/>
    </edge>
    <edge id=":104930984_0" function="internal">
        <lane id=":104930984_0_0" index="0" disallow="tram rail_urban rail rail_electric rail_fast ship" speed="6.40" length="9.04" shape="2262.59,2271.84 2260.10,2271.88 2258.26,2272.71 2257.06,2274.34 2256.51,2276.78"/>
    </edge>
    <edge id=":104930984_1" function="internal">
        <lane id=":104930984_1_0" index="0" disallow="tram rail_urban rail rail_electric rail_fast ship" speed="8.08" length="14.30" shape="2262.59,2271.84 2258.78,2270.80 2256.19,2268.82 2254.84,2265.89 2254.71,2262.03"/>
    </edge>
    <edge id=":104930984_2" function="internal">
        <lane id=":104930984_2_0" index="0" disallow="tram rail_urban rail rail_electric rail_fast ship" speed="3.65" length="4.67" shape="2262.59,2271.84 2261.51,2270.90 2261.21,2270.05 2261.71,2269.31 2263.01,2268.67"/>
    </edge>
    <edge id=":104930984_3" function="internal">
        <lane id=":104930984_3_0" index="0" disallow="tram rail_urban rail rail_electric rail_fast ship" speed="6.60" length="9.20" shape="2257.89,2262.39 2257.97,2264.86 2258.86,2266.73 2260.53,2268.00 2263.01,2268.67"/>
    </edge>
    <edge id=":104930984_4" function="internal">
        <lane id=":104930984_4_0" index="0" disallow="tram rail_urban rail rail_electric rail_fast ship" speed="11.18" length="14.51" shape="2257.89,2262.39 2256.51,2276.78">
            <neigh lane=":104930984_6_0"/>
        </lane>
    </edge>
    <edge id=":104930984_5" function="internal">
        <lane id=":104930984_5_0" index="0" disallow="tram rail_urban rail rail_electric rail_fast ship" speed="3.65" length="1.44" shape="2257.89,2262.39 2256.96,2263.49"/>
    </edge>
    <edge id=":104930984_9" function="internal">
        <lane id=":104930984_9_0" index="0" disallow="tram rail_urban rail rail_electric rail_fast ship" speed="3.65" length="3.23" shape="2256.96,2263.49 2256.12,2263.80 2255.37,2263.31 2254.71,2262.03"/>
    </edge>
    <edge id=":104930984_6" function="internal">
        <lane id=":104930984_6_0" index="0" disallow="tram rail_urban rail rail_electric rail_fast ship" speed="11.18" length="14.51" shape="2253.32,2276.52 2254.71,2262.03">
            <neigh lane=":104930984_4_0"/>
        </lane>
    </edge>
    <edge id=":104930984_7" function="internal">
        <lane id=":104930984_7_0" index="0" disallow="tram rail_urban rail rail_electric rail_fast ship" speed="7.92" length="4.23" shape="2253.32,2276.52 2254.19,2272.65 2254.35,2272.44"/>
    </edge>
    <edge id=":104930984_8" function="internal">
        <lane id=":104930984_8_0" index="0" disallow="tram rail_urban rail rail_electric rail_fast ship" speed="3.65" length="1.44" shape="2253.32,2276.52 2254.21,2275.39"/>
    </edge>
    <edge id=":104930984_10" function="internal">
        <lane id=":104930984_10_0" index="0" disallow="tram rail_urban rail rail_electric rail_fast ship" speed="7.92" length="10.16" shape="2254.35,2272.44 2256.10,2270.05 2259.04,2268.72 2263.01,2268.67"/>
    </edge>
    <edge id=":104930984_11" function="internal">
        <lane id=":104930984_11_0" index="0" disallow="tram rail_urban rail rail_electric rail_fast ship" speed="3.65" length="3.23" shape="2254.21,2275.39 2255.04,2275.05 2255.81,2275.52 2256.51,2276.78"/>
    </edge>
    <edge id=":104930999_0" function="internal">
        <lane id=":104930999_0_0" index="0" disallow="tram rail_urban rail rail_electric rail_fast ship" speed="6.47" length="9.03" shape="2444.55,2292.22 2442.07,2292.32 2440.22,2293.18 2439.02,2294.82 2438.45,2297.24"/>
    </edge>
    <edge id=":104930999_1" function="internal">
        <lane id=":104930999_1_0" index="0" disallow="tram rail_urban rail rail_electric rail_fast ship" speed="11.18" length="17.63" shape="2444.55,2292.22 2427.00,2290.42"/>
    </edge>
    <edge id=":104930999_2" function="internal">
        <lane id=":104930999_2_0" index="0" disallow="tram rail_urban rail rail_electric rail_fast ship" speed="8.69" length="16.90" shape="2444.55,2292.22 2439.36,2291.13 2435.78,2289.09 2433.81,2286.13 2433.45,2282.22"/>
    </edge>
    <edge id=":104930999_3" function="internal">
        <lane id=":104930999_3_0" index="0" disallow="tram rail_urban rail rail_electric rail_fast ship" speed="11.18" length="14.49" shape="2436.64,2282.54 2435.26,2296.95">
            <neigh lane=":104930999_8_0"/>
        </lane>
    </edge>
    <edge id=":104930999_4" function="internal">
        <lane id=":104930999_4_0" index="0" disallow="tram rail_urban rail rail_electric rail_fast ship" speed="8.01" length="4.02" shape="2436.64,2282.54 2435.70,2286.32 2435.62,2286.42"/>
    </edge>
    <edge id=":104930999_9" function="internal">
        <lane id=":104930999_9_0" index="0" disallow="tram rail_urban rail rail_electric rail_fast ship" speed="8.01" length="10.16" shape="2435.62,2286.42 2433.79,2288.89 2430.89,2290.25 2427.00,2290.42"/>
    </edge>
    <edge id=":104930999_5" function="internal">
        <lane id=":104930999_5_0" index="0" disallow="tram rail_urban rail rail_electric rail_fast ship" speed="6.51" length="9.03" shape="2427.32,2287.24 2429.79,2287.13 2431.64,2286.26 2432.86,2284.62 2433.45,2282.22"/>
    </edge>
    <edge id=":104930999_6" function="internal">
        <lane id=":104930999_6_0" index="0" disallow="tram rail_urban rail rail_electric rail_fast ship" speed="8.05" length="14.28" shape="2427.32,2287.24 2431.09,2288.17 2433.67,2290.10 2435.06,2293.03 2435.26,2296.95"/>
    </edge>
    <edge id=":104930999_7" function="internal">
        <lane id=":104930999_7_0" index="0" disallow="tram rail_urban rail rail_electric rail_fast ship" speed="6.57" length="9.16" shape="2432.07,2296.67 2431.95,2294.14 2431.06,2292.26 2429.41,2291.02 2427.00,2290.42"/>
    </edge>
    <edge id=":104930999_8" function="internal">
        <lane id=":104930999_8_0" index="0" disallow="tram rail_urban rail rail_electric rail_fast ship" speed="11.18" length="14.49" shape="2432.07,2296.67 2433.45,2282.22">
            <neigh lane=":104930999_3_0"/>
        </lane>
    </edge>
    <edge id=":104931010_0" function="internal">
        <lane id=":104931010_0_0" index="0" disallow="tram rail_urban rail rail_electric rail_fast ship" speed="11.18" length="11.88" shape="2644.57,2308.16 2641.11,2319.48">
            <neigh lane=":104931010_3_0"/>
        </lane>
    </edge>
    <edge id=":104931010_1" function="internal">
        <lane id=":104931010_1_0" index="0" disallow="tram rail_urban rail rail_electric rail_fast ship" speed="8.16" length="2.52" shape="2644.57,2308.16 2643.28,2310.32"/>
    </edge>
    <edge id=":104931010_4" function="internal">
        <lane id=":104931010_4_0" index="0" disallow="tram rail_urban rail rail_electric rail_fast ship" speed="8.16" length="9.92" shape="2643.28,2310.32 2641.06,2311.73 2637.91,2312.38 2633.83,2312.27"/>
    </edge>
    <edge id=":104931010_2" function="internal">
        <lane id=":104931010_2_0" index="0" disallow="tram rail_urban rail rail_electric rail_fast ship" speed="6.15" length="9.06" shape="2638.04,2318.58 2638.41,2316.05 2637.83,2314.16 2636.30,2312.90 2633.83,2312.27"/>
    </edge>
    <edge id=":104931010_3" function="internal">
        <lane id=":104931010_3_0" index="0" disallow="tram rail_urban rail rail_electric rail_fast ship" speed="11.18" length="11.88" shape="2638.04,2318.58 2641.53,2307.17">
            <neigh lane=":104931010_0_0"/>
        </lane>
    </edge>
    <edge id=":104991719_0" function="internal">
        <lane id=":104991719_0_0" index="0" disallow="tram rail_urban rail rail_electric rail_fast ship" speed="6.51" length="9.03" shape="2271.20,2195.14 2268.73,2195.21 2266.87,2196.05 2265.62,2197.66 2264.99,2200.06"/>
    </edge>
    <edge id=":104991719_1" function="internal">
        <lane id=":104991719_1_0" index="0" disallow="tram rail_urban rail rail_electric rail_fast ship" speed="7.37" length="11.72" shape="2271.20,2195.14 2267.41,2194.36 2264.78,2193.01 2263.31,2191.10 2263.01,2188.63"/>
    </edge>
    <edge id=":104991719_2" function="internal">
        <lane id=":104991719_2_0" index="0" disallow="tram rail_urban rail rail_electric rail_fast ship" speed="11.18" length="11.15" shape="2266.19,2188.95 2264.99,2200.06">
            <neigh lane=":104991719_3_0"/>
        </lane>
    </edge>
    <edge id=":104991719_3" function="internal">
        <lane id=":104991719_3_0" index="0" disallow="tram rail_urban rail rail_electric rail_fast ship" speed="11.18" length="11.15" shape="2261.81,2199.69 2263.01,2188.63">
            <neigh lane=":104991719_2_0"/>
        </lane>
    </edge>
    <edge id=":104991736_0" function="internal">
        <lane id=":104991736_0_0" index="0" disallow="tram rail_urban rail rail_electric rail_fast ship" speed="11.18" length="12.09" shape="2670.14,2229.87 2666.29,2241.26">
            <neigh lane=":104991736_3_0"/>
        </lane>
    </edge>
    <edge id=":104991736_1" function="internal">
        <lane id=":104991736_1_0" index="0" disallow="tram rail_urban rail rail_electric rail_fast ship" speed="8.45" length="2.53" shape="2670.14,2229.87 2668.77,2231.99"/>
    </edge>
    <edge id=":104991736_4" function="internal">
        <lane id=":104991736_4_0" index="0" disallow="tram rail_urban rail rail_electric rail_fast ship" speed="8.45" length="10.14" shape="2668.77,2231.99 2666.47,2233.39 2663.25,2234.08 2659.10,2234.05"/>
    </edge>
    <edge id=":104991736_2" function="internal">
        <lane id=":104991736_2_0" index="0" disallow="tram rail_urban rail rail_electric rail_fast ship" speed="6.07" length="9.07" shape="2663.25,2240.28 2663.68,2237.74 2663.14,2235.86 2661.61,2234.63 2659.10,2234.05"/>
    </edge>
    <edge id=":104991736_3" function="internal">
        <lane id=":104991736_3_0" index="0" disallow="tram rail_urban rail rail_electric rail_fast ship" speed="11.18" length="12.09" shape="2663.25,2240.28 2667.14,2228.76">
            <neigh lane=":104991736_0_0"/>
        </lane>
    </edge>
    <edge id=":105013246_0" function="internal">
        <lane id=":105013246_0_0" index="0" disallow="tram rail_urban rail rail_electric rail_fast ship" speed="6.55" length="9.04" shape="863.47,931.53 862.08,933.53 861.67,935.53 862.23,937.51 863.78,939.48"/>
        <lane id=":105013246_0_1" index="1" disallow="tram rail_urban rail rail_electric rail_fast ship" speed="7.36" length="11.69" shape="863.47,931.53 861.12,934.56 860.02,937.27 860.16,939.68 861.55,941.78"/>
    </edge>
    <edge id=":105013246_2" function="internal">
        <lane id=":105013246_2_0" index="0" disallow="tram rail_urban rail rail_electric rail_fast ship" speed="11.18" length="17.55" shape="863.47,931.53 851.46,944.34">
            <neigh lane=":105013246_8_1"/>
        </lane>
    </edge>
    <edge id=":105013246_3" function="internal">
        <lane id=":105013246_3_0" index="0" disallow="tram rail_urban rail rail_electric rail_fast ship" speed="6.57" length="9.11" shape="850.77,927.41 852.86,928.83 854.89,929.26 856.87,928.70 858.79,927.16"/>
    </edge>
    <edge id=":105013246_4" function="internal">
        <lane id=":105013246_4_0" index="0" disallow="tram rail_urban rail rail_electric rail_fast ship" speed="11.18" length="17.63" shape="850.77,927.41 863.78,939.48"/>
        <lane id=":105013246_4_1" index="1" disallow="tram rail_urban rail rail_electric rail_fast ship" speed="11.18" length="17.63" shape="848.63,929.79 861.55,941.78"/>
        <lane id=":105013246_4_2" index="2" disallow="tram rail_urban rail rail_electric rail_fast ship" speed="11.18" length="17.63" shape="846.48,932.16 859.33,944.08"/>
    </edge>
    <edge id=":105013246_7" function="internal">
        <lane id=":105013246_7_0" index="0" disallow="tram rail_urban rail rail_electric rail_fast ship" speed="8.03" length="14.54" shape="846.48,932.16 850.13,935.93 852.17,939.22 852.61,942.02 851.46,944.34"/>
    </edge>
    <edge id=":105013246_8" function="internal">
        <lane id=":105013246_8_0" index="0" disallow="tram rail_urban rail rail_electric rail_fast ship" speed="11.18" length="17.55" shape="846.80,939.95 858.79,927.16"/>
        <lane id=":105013246_8_1" index="1" disallow="tram rail_urban rail rail_electric rail_fast ship" speed="11.18" length="17.55" shape="849.13,942.14 861.13,929.35">
            <neigh lane=":105013246_2_0"/>
        </lane>
    </edge>
    <edge id=":105013246_10" function="internal">
        <lane id=":105013246_10_0" index="0" disallow="tram rail_urban rail rail_electric rail_fast ship" speed="7.97" length="4.08" shape="849.13,942.14 852.19,939.69 852.34,939.65"/>
        <lane id=":105013246_10_1" index="1" disallow="tram rail_urban rail rail_electric rail_fast ship" speed="7.29" length="1.00" shape="849.13,942.14 849.95,941.58"/>
    </edge>
    <edge id=":105013246_12" function="internal">
        <lane id=":105013246_12_0" index="0" disallow="tram rail_urban rail rail_electric rail_fast ship" speed="7.97" length="10.13" shape="852.34,939.65 855.28,938.81 858.40,939.51 861.55,941.78"/>
    </edge>
    <edge id=":105013246_13" function="internal">
        <lane id=":105013246_13_0" index="0" disallow="tram rail_urban rail rail_electric rail_fast ship" speed="7.29" length="10.72" shape="849.95,941.58 851.23,940.71 853.63,940.55 856.33,941.68 859.33,944.08"/>
    </edge>
    <edge id=":105013257_0" function="internal">
        <lane id=":105013257_0_0" index="0" disallow="tram rail_urban rail rail_electric rail_fast ship" speed="6.68" length="9.36" shape="1068.96,1129.98 1067.53,1132.10 1067.10,1134.18 1067.67,1136.22 1069.24,1138.24"/>
        <lane id=":105013257_0_1" index="1" disallow="tram rail_urban rail rail_electric rail_fast ship" speed="7.48" length="12.00" shape="1068.96,1129.98 1066.58,1133.13 1065.47,1135.94 1065.61,1138.41 1067.02,1140.54"/>
    </edge>
    <edge id=":105013257_2" function="internal">
        <lane id=":105013257_2_0" index="0" disallow="tram rail_urban rail rail_electric rail_fast ship" speed="11.18" length="17.77" shape="1068.96,1129.98 1056.90,1143.04"/>
    </edge>
    <edge id=":105013257_3" function="internal">