<routes>
  <personFlow id="12" begin="triggered" number="3">
    <ride busStop="bs_0" lines="pt_line_71b_in_14092020"/>
  </personFlow>
  <personFlow id="13" begin="triggered" number="2">
    <ride busStop="bs_0" lines="pt_line_71b_in_13632020"/>
  </personFlow>
  <personFlow id="14" begin="triggered" number="3">
    <ride busStop="bs_0" lines="pt_line_71b_in_1854020"/>
  </personFlow>
  <personFlow id="15" begin="triggered" number="1">
    <ride busStop="bs_0" lines="pt_line_71b_in_8044020"/>
  </personFlow>
  <personFlow id="16" begin="triggered" number="2">
    <ride busStop="bs_0" lines="pt_line_71b_in_3970020"/>
  </personFlow>
  <personFlow id="17" begin="triggered" number="2">
    <ride busStop="bs_0" lines="pt_line_71b_in_8183020"/>
  </personFlow>
  <personFlow id="18" begin="triggered" number="1">
    <ride busStop="bs_0" lines="pt_line_71b_in_10472020"/>
  </personFlow>
  <personFlow id="19" begin="triggered" number="3">
    <ride busStop="bs_0" lines="pt_line_71b_in_13754020"/>
  </personFlow>
  <personFlow id="20" begin="triggered" number="4">
    <ride busStop="bs_0" lines="pt_line_71b_in_1019020"/>
  </personFlow>
  <personFlow id="21" begin="triggered" number="8">
    <ride busStop="bs_0" lines="pt_line_71b_in_2381020"/>
  </personFlow>
  <personFlow id="22" begin="triggered" number="4">
    <ride busStop="bs_0" lines="pt_line_71b_in_9963020"/>
  </personFlow>
  <personFlow id="23" begin="triggered" number="3">
    <ride busStop="bs_0" lines="pt_line_71b_in_11101020"/>
  </personFlow>
  <personFlow id="24" begin="triggered" number="9">
    <ride busStop="bs_0" lines="pt_line_71b_in_190020"/>
  </personFlow>
  <personFlow id="25" begin="triggered" number="8">
    <ride busStop="bs_0" lines="pt_line_71b_in_1528020"/>
  </personFlow>
  <personFlow id="26" begin="triggered" number="4">
    <ride busStop="bs_0" lines="pt_line_71b_in_1621020"/>
  </personFlow>
  <personFlow id="27" begin="triggered" number="2">
    <ride busStop="bs_0" lines="pt_line_71b_in_7257020"/>
  </personFlow>
  <personFlow id="28" begin="triggered" number="6">
    <ride busStop="bs_0" lines="pt_line_71b_in_3271020"/>
  </personFlow>
  <personFlow id="29" begin="triggered" number="5">
    <ride busStop="bs_0" lines="pt_line_71b_in_2071020"/>
  </personFlow>
  <personFlow id="30" begin="triggered" number="3">
    <ride busStop="bs_0" lines="pt_line_71b_in_1726020"/>
  </personFlow>
  <personFlow id="31" begin="triggered" number="2">
    <ride busStop="bs_0" lines="pt_line_71b_in_9372020"/>
  </personFlow>
  <personFlow id="32" begin="triggered" number="6">
    <ride busStop="bs_0" lines="pt_line_71b_in_12344020"/>
  </personFlow>
  <personFlow id="33" begin="triggered" number="8">
    <ride busStop="bs_0" lines="pt_line_71b_in_9953020"/>
  </personFlow>
  <personFlow id="34" begin="triggered" number="2">
    <ride busStop="bs_0" lines="pt_line_71b_in_9158020"/>
  </personFlow>
  <personFlow id="35" begin="triggered" number="4">
    <ride busStop="bs_0" lines="pt_line_71b_in_2914020"/>
  </personFlow>
  <personFlow id="36" begin="triggered" number="7">
    <ride busStop="bs_0" lines="pt_line_71b_in_9090020"/>
  </personFlow>
  <personFlow id="37" begin="triggered" number="3">
    <ride busStop="bs_0" lines="pt_line_71b_in_6355020"/>
  </personFlow>
  <personFlow id="38" begin="triggered" number="3">
    <ride busStop="bs_0" lines="pt_line_71b_in_633020"/>
  </personFlow>
  <personFlow id="39" begin="triggered" number="6">
    <ride busStop="bs_0" lines="pt_line_71b_in_2739020"/>
  </personFlow>
  <personFlow id="40" begin="triggered" number="5">
    <ride busStop="bs_0" lines="pt_line_71b_in_11219020"/>
  </personFlow>
  <personFlow id="41" begin="triggered" number="3">
    <ride busStop="bs_0" lines="pt_line_71b_in_8020"/>
  </personFlow>
  <personFlow id="42" begin="triggered" number="6">
    <ride busStop="bs_0" lines="pt_line_71b_in_10838020"/>
  </personFlow>
  <personFlow id="43" begin="triggered" number="9">
    <ride busStop="bs_0" lines="pt_line_71b_in_10508020"/>
  </personFlow>
  <personFlow id="44" begin="triggered" number="2">
    <ride busStop="bs_0" lines="pt_line_71b_in_5928020"/>
  </personFlow>
  <personFlow id="45" begin="triggered" number="5">
    <ride busStop="bs_0" lines="pt_line_71b_in_85020"/>
  </personFlow>
  <personFlow id="46" begin="triggered" number="8">
    <ride busStop="bs_0" lines="pt_line_71b_in_11982020"/>
  </personFlow>
  <personFlow id="47" begin="triggered" number="3">
    <ride busStop="bs_0" lines="pt_line_71b_in_12708020"/>
  </personFlow>
  <personFlow id="48" begin="triggered" number="3">
    <ride busStop="bs_0" lines="pt_line_71b_in_3957020"/>
  </personFlow>
  <personFlow id="49" begin="triggered" number="5">
    <ride busStop="bs_0" lines="pt_line_71b_in_281020"/>
  </personFlow>
  <personFlow id="50" begin="triggered" number="7">
    <ride busStop="bs_0" lines="pt_line_71b_in_8179020"/>
  </personFlow>
  <personFlow id="51" begin="triggered" number="3">
    <ride busStop="bs_0" lines="pt_line_71b_in_8330020"/>
  </personFlow>
  <personFlow id="52" begin="triggered" number="2">
    <ride busStop="bs_0" lines="pt_line_71b_in_2565020"/>
  </personFlow>
  <personFlow id="53" begin="triggered" number="3">
    <ride busStop="bs_0" lines="pt_line_71b_in_3704020"/>
  </personFlow>
  <personFlow id="54" begin="triggered" number="5">
    <ride busStop="bs_0" lines="pt_line_71b_in_8111020"/>
  </personFlow>
  <personFlow id="55" begin="triggered" number="5">
    <ride busStop="bs_0" lines="pt_line_71b_in_10970020"/>
  </personFlow>
  <personFlow id="56" begin="triggered" number="1">
    <ride busStop="bs_0" lines="pt_line_71b_in_9320020"/>
  </personFlow>
  <personFlow id="57" begin="triggered" number="2">
    <ride busStop="bs_0" lines="pt_line_71b_in_609020"/>
  </personFlow>
  <personFlow id="58" begin="triggered" number="3">
    <ride busStop="bs_0" lines="pt_line_71b_in_1081020"/>
  </personFlow>
  <personFlow id="59" begin="triggered" number="3">
    <ride busStop="bs_0" lines="pt_line_71b_in_9500020"/>
  </personFlow>
  <personFlow id="60" begin="triggered" number="3">
    <ride busStop="bs_0" lines="pt_line_71b_in_4814020"/>
  </personFlow>
  <personFlow id="61" begin="triggered" number="9">
    <ride busStop="bs_0" lines="pt_line_71b_in_3338020"/>
  </personFlow>
  <personFlow id="62" begin="triggered" number="4">
    <ride busStop="bs_0" lines="pt_line_71b_in_7777020"/>
  </personFlow>
  <personFlow id="63" begin="triggered" number="4">
    <ride busStop="bs_0" lines="pt_line_71b_in_5989020"/>
  </personFlow>
  <personFlow id="64" begin="triggered" number="7">
    <ride busStop="bs_0" lines="pt_line_71b_in_6026020"/>
  </personFlow>
  <personFlow id="65" begin="triggered" number="4">
    <ride busStop="bs_0" lines="pt_line_71b_in_4287020"/>
  </personFlow>
  <personFlow id="66" begin="triggered" number="4">
    <ride busStop="bs_0" lines="pt_line_71b_in_8880020"/>
  </personFlow>
  <personFlow id="67" begin="triggered" number="8">
    <ride busStop="bs_0" lines="pt_line_71b_in_11939020"/>
  </personFlow>
  <personFlow id="68" begin="triggered" number="3">
    <ride busStop="bs_0" lines="pt_line_71b_in_53020"/>
  </personFlow>
  <personFlow id="69" begin="triggered" number="5">
    <ride busStop="bs_0" lines="pt_line_71b_in_3380020"/>
  </personFlow>
  <personFlow id="70" begin="triggered" number="7">
    <ride busStop="bs_0" lines="pt_line_71b_in_13961020"/>
  </personFlow>
  <personFlow id="71" begin="triggered" number="6">
    <ride busStop="bs_0" lines="pt_line_71b_in_1074020"/>
  </personFlow>
  <personFlow id="72" begin="triggered" number="7">
    <ride busStop="bs_0" lines="pt_line_71b_in_3064020"/>
  </personFlow>
  <personFlow id="73" begin="triggered" number="6">
    <ride busStop="bs_0" lines="pt_line_71b_in_5489020"/>
  </personFlow>
  <personFlow id="74" begin="triggered" number="5">
    <ride busStop="bs_0" lines="pt_line_71b_in_10686020"/>
  </personFlow>
  <personFlow id="75" begin="triggered" number="3">
    <ride busStop="bs_0" lines="pt_line_71b_in_13792020"/>
  </personFlow>
  <personFlow id="96" begin="triggered" number="4">
    <ride busStop="bs_0" lines="pt_line_71d_in_2709020"/>
  </personFlow>
  <personFlow id="97" begin="triggered" number="1">
    <ride busStop="bs_0" lines="pt_line_71d_in_4824020"/>
  </personFlow>
  <personFlow id="98" begin="triggered" number="3">
    <ride busStop="bs_0" lines="pt_line_71d_in_4072020"/>
  </personFlow>
  <personFlow id="99" begin="triggered" number="2">
    <ride busStop="bs_0" lines="pt_line_71d_in_1491020"/>
  </personFlow>
  <personFlow id="100" begin="triggered" number="1">
    <ride busStop="bs_0" lines="pt_line_71d_in_4950020"/>
  </personFlow>
  <personFlow id="101" begin="triggered" number="1">
    <ride busStop="bs_0" lines="pt_line_71d_in_9857020"/>
  </personFlow>
  <personFlow id="102" begin="triggered" number="3">
    <ride busStop="bs_0" lines="pt_line_71d_in_12270020"/>
  </personFlow>
  <personFlow id="103" begin="triggered" number="3">
    <ride busStop="bs_0" lines="pt_line_71d_in_9892020"/>
  </personFlow>
  <personFlow id="104" begin="triggered" number="4">
    <ride busStop="bs_0" lines="pt_line_71d_in_1877020"/>
  </personFlow>
  <personFlow id="105" begin="triggered" number="4">
    <ride busStop="bs_0" lines="pt_line_71d_in_11962020"/>
  </personFlow>
  <personFlow id="106" begin="triggered" number="6">
    <ride busStop="bs_0" lines="pt_line_71d_in_3910020"/>
  </personFlow>
  <personFlow id="107" begin="triggered" number="2">
    <ride busStop="bs_0" lines="pt_line_71d_in_7093020"/>
  </personFlow>
  <personFlow id="108" begin="triggered" number="4">
    <ride busStop="bs_0" lines="pt_line_71d_in_13232020"/>
  </personFlow>
  <personFlow id="109" begin="triggered" number="7">
    <ride busStop="bs_0" lines="pt_line_71d_in_4305020"/>
  </personFlow>
  <personFlow id="110" begin="triggered" number="8">
    <ride busStop="bs_0" lines="pt_line_71d_in_9587020"/>
  </personFlow>
  <personFlow id="111" begin="triggered" number="1">
    <ride busStop="bs_0" lines="pt_line_71d_in_5744020"/>
  </personFlow>
  <personFlow id="112" begin="triggered" number="3">
    <ride busStop="bs_0" lines="pt_line_71d_in_11181020"/>
  </personFlow>
  <personFlow id="113" begin="triggered" number="4">
    <ride busStop="bs_0" lines="pt_line_71d_in_5162020"/>
  </personFlow>
  <personFlow id="114" begin="triggered" number="5">
    <ride busStop="bs_0" lines="pt_line_71d_in_7662020"/>
  </personFlow>
  <personFlow id="115" begin="triggered" number="1">
    <ride busStop="bs_0" lines="pt_line_71d_in_9365020"/>
  </personFlow>
  <personFlow id="116" begin="triggered" number="3">
    <ride busStop="bs_0" lines="pt_line_71d_in_5856020"/>
  </personFlow>
  <personFlow id="117" begin="triggered" number="6">
    <ride busStop="bs_0" lines="pt_line_71d_in_6526020"/>
  </personFlow>
  <personFlow id="118" begin="triggered" number="4">
    <ride busStop="bs_0" lines="pt_line_71d_in_1547020"/>
  </personFlow>
  <personFlow id="119" begin="triggered" number="2">
    <ride busStop="bs_0" lines="pt_line_71d_in_1286020"/>
  </personFlow>
  <personFlow id="120" begin="triggered" number="5">
    <ride busStop="bs_0" lines="pt_line_71d_in_12855020"/>
  </personFlow>
  <personFlow id="121" begin="triggered" number="5">
    <ride busStop="bs_0" lines="pt_line_71d_in_8375020"/>
  </personFlow>
  <personFlow id="122" begin="triggered" number="2">
    <ride busStop="bs_0" lines="pt_line_71d_in_10648020"/>
  </personFlow>
  <personFlow id="123" begin="triggered" number="4">
    <ride busStop="bs_0" lines="pt_line_71d_in_7222020"/>
  </personFlow>
  <personFlow id="124" begin="triggered" number="7">
    <ride busStop="bs_0" lines="pt_line_71d_in_13344020"/>
  </personFlow>
  <personFlow id="125" begin="triggered" number="2">
    <ride busStop="bs_0" lines="pt_line_71d_in_11207020"/>
  </personFlow>
  <personFlow id="126" begin="triggered" number="4">
    <ride busStop="bs_0" lines="pt_line_71d_in_9065020"/>
  </personFlow>
  <personFlow id="127" begin="triggered" number="7">
    <ride busStop="bs_0" lines="pt_line_71d_in_7090020"/>
  </personFlow>
  <personFlow id="128" begin="triggered" number="4">
    <ride busStop="bs_0" lines="pt_line_71d_in_7648020"/>
  </personFlow>
  <personFlow id="129" begin="triggered" number="3">
    <ride busStop="bs_0" lines="pt_line_71d_in_9922020"/>
  </personFlow>
  <personFlow id="130" begin="triggered" number="6">
    <ride busStop="bs_0" lines="pt_line_71d_in_3946020"/>
  </personFlow>
  <personFlow id="131" begin="triggered" number="7">
    <ride busStop="bs_0" lines="pt_line_71d_in_7783020"/>
  </personFlow>
  <personFlow id="132" begin="triggered" number="1">
    <ride busStop="bs_0" lines="pt_line_71d_in_13876020"/>
  </personFlow>
  <personFlow id="133" begin="triggered" number="3">
    <ride busStop="bs_0" lines="pt_line_71d_in_5360020"/>
  </personFlow>
  <personFlow id="134" begin="triggered" number="5">
    <ride busStop="bs_0" lines="pt_line_71d_in_11836020"/>
  </personFlow>
  <personFlow id="135" begin="triggered" number="5">
    <ride busStop="bs_0" lines="pt_line_71d_in_549020"/>
  </personFlow>
  <personFlow id="136" begin="triggered" number="1">
    <ride busStop="bs_0" lines="pt_line_71d_in_2834020"/>
  </personFlow>
  <personFlow id="137" begin="triggered" number="3">
    <ride busStop="bs_0" lines="pt_line_71d_in_1154020"/>
  </personFlow>
  <personFlow id="138" begin="triggered" number="3">
    <ride busStop="bs_0" lines="pt_line_71d_in_11862020"/>
  </personFlow>
  <personFlow id="139" begin="triggered" number="6">
    <ride busStop="bs_0" lines="pt_line_71d_in_12900020"/>
  </personFlow>
  <personFlow id="140" begin="triggered" number="1">
    <ride busStop="bs_0" lines="pt_line_71d_in_8071020"/>
  </personFlow>
  <personFlow id="141" begin="triggered" number="1">
    <ride busStop="bs_0" lines="pt_line_71d_in_5291020"/>
  </personFlow>
  <personFlow id="142" begin="triggered" number="3">
    <ride busStop="bs_0" lines="pt_line_71d_in_11569020"/>
  </personFlow>
  <personFlow id="143" begin="triggered" number="4">
    <ride busStop="bs_0" lines="pt_line_71d_in_10956020"/>
  </personFlow>
  <personFlow id="144" begin="triggered" number="2">
    <ride busStop="bs_0" lines="pt_line_71d_in_7710020"/>
  </personFlow>
  <personFlow id="145" begin="triggered" number="6">
    <ride busStop="bs_0" lines="pt_line_71d_in_8205020"/>
  </personFlow>
  <personFlow id="146" begin="triggered" number="6">
    <ride busStop="bs_0" lines="pt_line_71d_in_7379020"/>
  </personFlow>
  <personFlow id="147" begin="triggered" number="2">
    <ride busStop="bs_0" lines="pt_line_71d_in_5032020"/>
  </personFlow>
  <personFlow id="148" begin="triggered" number="5">
    <ride busStop="bs_0" lines="pt_line_71d_in_6852020"/>
  </personFlow>
  <personFlow id="149" begin="triggered" number="6">
    <ride busStop="bs_0" lines="pt_line_71d_in_8608020"/>
  </personFlow>
  <personFlow id="150" begin="triggered" number="2">
    <ride busStop="bs_0" lines="pt_line_71d_in_5197020"/>
  </personFlow>
  <personFlow id="151" begin="triggered" number="6">
    <ride busStop="bs_0" lines="pt_line_71d_in_11145020"/>
  </personFlow>
  <personFlow id="152" begin="triggered" number="5">
    <ride busStop="bs_0" lines="pt_line_71d_in_10519020"/>
  </personFlow>
  <personFlow id="153" begin="triggered" number="2">
    <ride busStop="bs_0" lines="pt_line_71d_in_2494020"/>
  </personFlow>
  <personFlow id="154" begin="triggered" number="8">
    <ride busStop="bs_0" lines="pt_line_71d_in_6879020"/>
  </personFlow>
  <personFlow id="155" begin="triggered" number="3">
    <ride busStop="bs_0" lines="pt_line_71d_in_13470020"/>
  </personFlow>
  <personFlow id="156" begin="triggered" number="8">
    <ride busStop="bs_0" lines="pt_line_71d_in_13285020"/>
  </personFlow>
  <personFlow id="157" begin="triggered" number="3">
    <ride busStop="bs_0" lines="pt_line_71d_in_9269020"/>
  </personFlow>
  <personFlow id="158" begin="triggered" number="7">
    <ride busStop="bs_0" lines="pt_line_71d_in_5472020"/>
  </personFlow>
  <personFlow id="159" begin="triggered" number="1">
    <ride busStop="bs_0" lines="pt_line_71d_in_11278020"/>
  </personFlow>
  <personFlow id="224" begin="triggered" number="1">
    <ride busStop="bs_1" lines="pt_line_71b_out_965020"/>
  </personFlow>
  <personFlow id="225" begin="triggered" number="1">
    <ride busStop="bs_1" lines="pt_line_71b_out_7581020"/>
  </personFlow>
  <personFlow id="226" begin="triggered" number="1">
    <ride busStop="bs_1" lines="pt_line_71b_out_3912020"/>
  </personFlow>
  <personFlow id="227" begin="triggered" number="1">
    <ride busStop="bs_1" lines="pt_line_71b_out_10916020"/>
  </personFlow>
  <personFlow id="228" begin="triggered" number="1">
    <ride busStop="bs_1" lines="pt_line_71b_out_8017020"/>
  </personFlow>
  <personFlow id="229" begin="triggered" number="1">
    <ride busStop="bs_1" lines="pt_line_71b_out_3550020"/>
  </personFlow>
  <personFlow id="230" begin="triggered" number="1">
    <ride busStop="bs_1" lines="pt_line_71b_out_12623020"/>
  </personFlow>
  <personFlow id="231" begin="triggered" number="1">
    <ride busStop="bs_1" lines="pt_line_71b_out_5615020"/>
  </personFlow>
  <personFlow id="232" begin="triggered" number="1">
    <ride busStop="bs_1" lines="pt_line_71b_out_6709020"/>
  </personFlow>
  <personFlow id="233" begin="triggered" number="1">
    <ride busStop="bs_1" lines="pt_line_71b_out_13983020"/>
  </personFlow>
  <personFlow id="234" begin="triggered" number="1">
    <ride busStop="bs_1" lines="pt_line_71b_out_8602020"/>
  </personFlow>
  <personFlow id="299" begin="triggered" number="1">
    <ride busStop="bs_1" lines="pt_line_71d_out_4956020"/>
  </personFlow>
  <personFlow id="300" begin="triggered" number="1">
    <ride busStop="bs_1" lines="pt_line_71d_out_66020"/>
  </personFlow>
  <personFlow id="301" begin="triggered" number="1">
    <ride busStop="bs_1" lines="pt_line_71d_out_9593020"/>
  </personFlow>
  <personFlow id="302" begin="triggered" number="1">
    <ride busStop="bs_1" lines="pt_line_71d_out_9081020"/>
  </personFlow>
  <personFlow id="303" begin="triggered" number="1">
    <ride busStop="bs_1" lines="pt_line_71d_out_12211020"/>
  </personFlow>
  <personFlow id="304" begin="triggered" number="1">
    <ride busStop="bs_1" lines="pt_line_71d_out_8711020"/>
  </personFlow>
  <personFlow id="305" begin="triggered" number="1">
    <ride busStop="bs_1" lines="pt_line_71d_out_4410020"/>
  </personFlow>
  <personFlow id="306" begin="triggered" number="1">
    <ride busStop="bs_1" lines="pt_line_71d_out_13504020"/>
  </personFlow>
  <personFlow id="307" begin="triggered" number="1">
    <ride busStop="bs_1" lines="pt_line_71d_out_11004020"/>
  </personFlow>
  <personFlow id="308" begin="triggered" number="1">
    <ride busStop="bs_1" lines="pt_line_71d_out_9248020"/>
  </personFlow>
  <personFlow id="309" begin="triggered" number="1">
    <ride busStop="bs_1" lines="pt_line_71d_out_4881020"/>
  </personFlow>
  <personFlow id="310" begin="triggered" number="1">
    <ride busStop="bs_1" lines="pt_line_71d_out_3720020"/>
  </personFlow>
  <personFlow id="311" begin="triggered" number="1">
    <ride busStop="bs_1" lines="pt_line_71d_out_12767020"/>
  </personFlow>
  <personFlow id="312" begin="triggered" number="1">
    <ride busStop="bs_1" lines="pt_line_71d_out_8140020"/>
  </personFlow>
  <personFlow id="394" begin="triggered" number="1">
    <ride busStop="bs_10" lines="pt_line_54_out_5467020"/>
  </personFlow>
  <personFlow id="395" begin="triggered" number="1">
    <ride busStop="bs_10" lines="pt_line_54_out_11025020"/>
  </personFlow>
  <personFlow id="396" begin="triggered" number="1">
    <ride busStop="bs_10" lines="pt_line_54_out_2195020"/>
  </personFlow>
  <personFlow id="397" begin="triggered" number="1">
    <ride busStop="bs_10" lines="pt_line_54_out_6502020"/>
  </personFlow>
  <personFlow id="398" begin="triggered" number="2">
    <ride busStop="bs_10" lines="pt_line_54_out_11894020"/>
  </personFlow>
  <personFlow id="399" begin="triggered" number="1">
    <ride busStop="bs_10" lines="pt_line_54_out_7958020"/>
  </personFlow>
  <personFlow id="400" begin="triggered" number="2">
    <ride busStop="bs_10" lines="pt_line_54_out_5574020"/>
  </personFlow>
  <personFlow id="401" begin="triggered" number="2">
    <ride busStop="bs_10" lines="pt_line_54_out_400020"/>
  </personFlow>
  <personFlow id="402" begin="triggered" number="1">
    <ride busStop="bs_10" lines="pt_line_54_out_8987020"/>
  </personFlow>
  <personFlow id="403" begin="triggered" number="2">
    <ride busStop="bs_10" lines="pt_line_54_out_6417020"/>
  </personFlow>
  <personFlow id="404" begin="triggered" number="2">
    <ride busStop="bs_10" lines="pt_line_54_out_5066020"/>
  </personFlow>
  <personFlow id="405" begin="triggered" number="1">
    <ride busStop="bs_10" lines="pt_line_54_out_14036020"/>
  </personFlow>
  <personFlow id="406" begin="triggered" number="2">
    <ride busStop="bs_10" lines="pt_line_54_out_4359020"/>
  </personFlow>
  <personFlow id="407" begin="triggered" number="2">
    <ride busStop="bs_10" lines="pt_line_54_out_3519020"/>
  </personFlow>
  <personFlow id="408" begin="triggered" number="1">
    <ride busStop="bs_10" lines="pt_line_54_out_4730020"/>
  </personFlow>
  <personFlow id="409" begin="triggered" number="2">
    <ride busStop="bs_10" lines="pt_line_54_out_13410020"/>
  </personFlow>
  <personFlow id="410" begin="triggered" number="1">
    <ride busStop="bs_10" lines="pt_line_54_out_7137020"/>
  </personFlow>
  <personFlow id="411" begin="triggered" number="1">
    <ride busStop="bs_10" lines="pt_line_54_out_8754020"/>
  </personFlow>
  <personFlow id="412" begin="triggered" number="2">
    <ride busStop="bs_10" lines="pt_line_54_out_5445020"/>
  </personFlow>
  <personFlow id="413" begin="triggered" number="2">
    <ride busStop="bs_10" lines="pt_line_54_out_9369020"/>
  </personFlow>
  <personFlow id="414" begin="triggered" number="1">
    <ride busStop="bs_10" lines="pt_line_54_out_7780020"/>
  </personFlow>
  <personFlow id="415" begin="triggered" number="2">
    <ride busStop="bs_10" lines="pt_line_54_out_1985020"/>
  </personFlow>
  <personFlow id="416" begin="triggered" number="2">
    <ride busStop="bs_10" lines="pt_line_54_out_9917020"/>
  </personFlow>
  <personFlow id="417" begin="triggered" number="1">
    <ride busStop="bs_10" lines="pt_line_54_out_11370020"/>
  </personFlow>
  <personFlow id="418" begin="triggered" number="2">
    <ride busStop="bs_10" lines="pt_line_54_out_12632020"/>
  </personFlow>
  <personFlow id="419" begin="triggered" number="1">
    <ride busStop="bs_10" lines="pt_line_54_out_12072020"/>
  </personFlow>
  <personFlow id="420" begin="triggered" number="1">
    <ride busStop="bs_10" lines="pt_line_54_out_4105020"/>
  </personFlow>
  <personFlow id="421" begin="triggered" number="2">
    <ride busStop="bs_10" lines="pt_line_54_out_5950020"/>
  </personFlow>
  <personFlow id="422" begin="triggered" number="2">
    <ride busStop="bs_10" lines="pt_line_54_out_2534020"/>
  </personFlow>
  <personFlow id="423" begin="triggered" number="1">
    <ride busStop="bs_10" lines="pt_line_54_out_1552020"/>
  </personFlow>
  <personFlow id="424" begin="triggered" number="2">
    <ride busStop="bs_10" lines="pt_line_54_out_12585020"/>
  </personFlow>
  <personFlow id="425" begin="triggered" number="2">
    <ride busStop="bs_10" lines="pt_line_54_out_2881020"/>
  </personFlow>
  <personFlow id="426" begin="triggered" number="1">
    <ride busStop="bs_10" lines="pt_line_54_out_2317020"/>
  </personFlow>
  <personFlow id="427" begin="triggered" number="3">
    <ride busStop="bs_10" lines="pt_line_54_out_10895020"/>
  </personFlow>
  <personFlow id="428" begin="triggered" number="2">
    <ride busStop="bs_10" lines="pt_line_54_out_10532020"/>
  </personFlow>
  <personFlow id="429" begin="triggered" number="1">
    <ride busStop="bs_10" lines="pt_line_54_out_5171020"/>
  </personFlow>
  <personFlow id="430" begin="triggered" number="2">
    <ride busStop="bs_10" lines="pt_line_54_out_1915020"/>
  </personFlow>
  <personFlow id="431" begin="triggered" number="2">
    <ride busStop="bs_10" lines="pt_line_54_out_7369020"/>
  </personFlow>
  <personFlow id="432" begin="triggered" number="1">
    <ride busStop="bs_10" lines="pt_line_54_out_5011020"/>
  </personFlow>
  <personFlow id="433" begin="triggered" number="2">
    <ride busStop="bs_10" lines="pt_line_54_out_13469020"/>
  </personFlow>
  <personFlow id="434" begin="triggered" number="2">
    <ride busStop="bs_10" lines="pt_line_54_out_3801020"/>
  </personFlow>
  <personFlow id="435" begin="triggered" number="1">
    <ride busStop="bs_10" lines="pt_line_54_out_6068020"/>
  </personFlow>
  <personFlow id="436" begin="triggered" number="5">
    <ride busStop="bs_10" lines="pt_line_54_out_2367020"/>
  </personFlow>
  <personFlow id="437" begin="triggered" number="1">
    <ride busStop="bs_10" lines="pt_line_54_out_1455020"/>
  </personFlow>
  <personFlow id="438" begin="triggered" number="2">
    <ride busStop="bs_10" lines="pt_line_54_out_8528020"/>
  </personFlow>
  <personFlow id="439" begin="triggered" number="1">
    <ride busStop="bs_10" lines="pt_line_54_out_12735020"/>
  </personFlow>
  <personFlow id="440" begin="triggered" number="2">
    <ride busStop="bs_10" lines="pt_line_54_out_12088020"/>
  </personFlow>
  <personFlow id="441" begin="triggered" number="1">
    <ride busStop="bs_10" lines="pt_line_54_out_4383020"/>
  </personFlow>
  <personFlow id="442" begin="triggered" number="2">
    <ride busStop="bs_10" lines="pt_line_54_out_266020"/>
  </personFlow>
  <personFlow id="443" begin="triggered" number="1">
    <ride busStop="bs_10" lines="pt_line_54_out_2600020"/>
  </personFlow>
  <personFlow id="491" begin="triggered" number="1">
    <ride busStop="bs_10" lines="pt_line_61a_in_7483020"/>
  </personFlow>
  <personFlow id="492" begin="triggered" number="1">
    <ride busStop="bs_10" lines="pt_line_61a_in_13464020"/>
  </personFlow>
  <personFlow id="493" begin="triggered" number="1">
    <ride busStop="bs_10" lines="pt_line_61a_in_13005020"/>
  </personFlow>
  <personFlow id="494" begin="triggered" number="1">
    <ride busStop="bs_10" lines="pt_line_61a_in_6487020"/>
  </personFlow>
  <personFlow id="495" begin="triggered" number="1">
    <ride busStop="bs_10" lines="pt_line_61a_in_831020"/>
  </personFlow>
  <personFlow id="496" begin="triggered" number="1">
    <ride busStop="bs_10" lines="pt_line_61a_in_12126020"/>
  </personFlow>
  <personFlow id="497" begin="triggered" number="1">
    <ride busStop="bs_10" lines="pt_line_61a_in_5057020"/>
  </personFlow>
  <personFlow id="498" begin="triggered" number="1">
    <ride busStop="bs_10" lines="pt_line_61a_in_2434020"/>
  </personFlow>
  <personFlow id="499" begin="triggered" number="1">
    <ride busStop="bs_10" lines="pt_line_61a_in_2197020"/>
  </personFlow>
  <personFlow id="500" begin="triggered" number="1">
    <ride busStop="bs_10" lines="pt_line_61a_in_12484020"/>
  </personFlow>
  <personFlow id="501" begin="triggered" number="1">
    <ride busStop="bs_10" lines="pt_line_61a_in_5457020"/>
  </personFlow>
  <personFlow id="502" begin="triggered" number="1">
    <ride busStop="bs_10" lines="pt_line_61a_in_8588020"/>
  </personFlow>
  <personFlow id="503" begin="triggered" number="1">
    <ride busStop="bs_10" lines="pt_line_61a_in_10633020"/>
  </personFlow>
  <personFlow id="504" begin="triggered" number="1">
    <ride busStop="bs_10" lines="pt_line_61a_in_13515020"/>
  </personFlow>
  <personFlow id="505" begin="triggered" number="1">
    <ride busStop="bs_10" lines="pt_line_61a_in_7739020"/>
  </personFlow>
  <personFlow id="506" begin="triggered" number="1">
    <ride busStop="bs_10" lines="pt_line_61a_in_8733020"/>
  </personFlow>
  <personFlow id="507" begin="triggered" number="1">
    <ride busStop="bs_10" lines="pt_line_61a_in_12507020"/>
  </personFlow>
  <personFlow id="508" begin="triggered" number="1">
    <ride busStop="bs_10" lines="pt_line_61a_in_5225020"/>
  </personFlow>
  <personFlow id="509" begin="triggered" number="1">
    <ride busStop="bs_10" lines="pt_line_61a_in_5328020"/>
  </personFlow>
  <personFlow id="510" begin="triggered" number="1">
    <ride busStop="bs_10" lines="pt_line_61a_in_13975020"/>
  </personFlow>
  <personFlow id="511" begin="triggered" number="1">
    <ride busStop="bs_10" lines="pt_line_61a_in_9603020"/>
  </personFlow>
  <personFlow id="512" begin="triggered" number="1">
    <ride busStop="bs_10" lines="pt_line_61a_in_3698020"/>
  </personFlow>
  <personFlow id="513" begin="triggered" number="1">
    <ride busStop="bs_10" lines="pt_line_61a_in_9577020"/>
  </personFlow>
  <personFlow id="514" begin="triggered" number="1">
    <ride busStop="bs_10" lines="pt_line_61a_in_11655020"/>
  </personFlow>
  <personFlow id="515" begin="triggered" number="1">
    <ride busStop="bs_10" lines="pt_line_61a_in_350020"/>
  </personFlow>
  <personFlow id="516" begin="triggered" number="1">
    <ride busStop="bs_10" lines="pt_line_61a_in_11996020"/>
  </personFlow>
  <personFlow id="517" begin="triggered" number="1">
    <ride busStop="bs_10" lines="pt_line_61a_in_3806020"/>
  </personFlow>
  <personFlow id="518" begin="triggered" number="1">
    <ride busStop="bs_10" lines="pt_line_61a_in_9071020"/>
  </personFlow>
  <personFlow id="519" begin="triggered" number="1">
    <ride busStop="bs_10" lines="pt_line_61a_in_6138020"/>
  </personFlow>
  <personFlow id="520" begin="triggered" number="1">
    <ride busStop="bs_10" lines="pt_line_61a_in_1435020"/>
  </personFlow>
  <personFlow id="521" begin="triggered" number="1">
    <ride busStop="bs_10" lines="pt_line_61a_in_8447020"/>
  </personFlow>
  <personFlow id="522" begin="triggered" number="1">
    <ride busStop="bs_10" lines="pt_line_61a_in_6784020"/>
  </personFlow>
  <personFlow id="523" begin="triggered" number="1">