<additional>>
    <variableSpeedSign id="central_catholic_high_school_speed_sign" lanes="-625361998#3_0 -625361998#3_1 -625361998#3.164_0 -625361998#3.164_1 625361998#0_0 625361998#0_1 625361998#3_0 625361998#3_1">
        <step time="26100" speed="6.7056"/>
        <step time="33300" speed="-1"/>
        <step time="52200" speed="6.7056"/>
        <step time="57600" speed="-1"/>
    </variableSpeedSign>
    <variableSpeedSign id="oakland_catholic_high_school_speed_sign" lanes="11960711#0.74_0 -966308107#4.550_0">
        <step time="26100" speed="6.7056"/>
        <step time="33300" speed="-1"/>
        <step time="52200" speed="6.7056"/>
        <step time="57600" speed="-1"/>
    </variableSpeedSign>
</additional>