<!-- generated on 2023-04-06 14:29:44.223984 by routeSampler.py v1_16_0+0000-94ec4c6cd72
<configuration>
    <edgedata-attribute value="qPKW"/>
    <edgedata-files value="../2023-01-27-13-15-43/extra/edgedata.xml"/>
    <interval value="3600"/>
    <optimize value="full"/>
    <output-file value="../2023-01-27-13-15-43/traffic_flow.rou.xml"/>
    <route-files value="../2023-01-27-13-15-43/traffic.rou.xml"/>
    <threads value="10"/>
    <attributes value="departSpeed=&quot;max&quot; type=&quot;car&quot; departLane=&quot;best&quot;"/>
    <verbose value="True"/>
    <write-flows value="number"/>
    <write-route-ids value="True"/>
</configuration>
-->
<routes xmlns:xsi="http://www.w3.org/2001/XMLSchema-instance" xsi:noNamespaceSchemaLocation="http://sumo.dlr.de/xsd/routes_file.xsd">
  <vType id="car" vClass="passenger" impatience="0.5" jmDriveAfterYellowTime="1.5" scale="0.925"/>
  <!-- begin="0.0" end="3600.0" -->
  <route id="0_0" edges="-1022429029 -11955884#3 -11955884#3.119 -625851681#2 -28727096#3 -28727096#0 625479007#0 625479007#0.42 625479007#1 625479007#2 625479007#4 11737884#0 -11809341#3"/>
  <!-- 9 (-1022429029_-11809341#3.qPKW.780) -->
  <route id="0_1" edges="-1022429029 -11955884#3 -11955884#3.119 -625851681#2 -28727096#3 -28727096#0 625479007#0 625479007#0.42 625479007#1 625479007#2 625479007#4 11737884#0 11737884#1 11737884#3 625866890 293149229#0 293149229#1 293149229#2 293149229#3 293149229#4 625866891#0 625866891#2 293149228#0 293149228#1 402298704#0 302191269 E1 E4 E4.26"/>
  <!-- 38 (-1022429029_E4.26.qPKW.420) -->
  <route id="0_4" edges="-1035459376#3 293149229#4 625866891#0 625866891#2 11731871#0 -320948876#7"/>
  <!-- 14 (-1035459376#3_-320948876#7.qPKW.60) -->
  <route id="0_11" edges="-11729090 -335532207#3 335532208#0 24864540#0 24864541 -265895120#1 -11826990#3 -11826990#2 -11826990#1 -28727096#3 -28727096#0 11820239#0"/>
  <!-- 9 (-11729090_11820239#0.qPKW.240) -->
  <route id="0_14" edges="-11729090 -335532207#3 335532208#0 24864540#0 24864541 28727103#0 28727103#0.110 -294921205#1 -294921206#6 -294921206#3 -11750475 -28727096#0 625479007#0 625479007#0.42 625479007#1 625479007#2 625479007#4 -359652179#1 -294294285 -1038117874#1"/>
  <!-- 5 (-11729090_-1038117874#1.qPKW.780) -->
  <route id="0_15" edges="-11729090 -335532207#3 335532208#0 24864540#0 24864541 28727103#0 28727103#0.110 -294921205#1 -294921206#6 -294921206#3 -11750475 -28727096#0 625479007#0 625479007#0.42 625479007#1 625479007#2 625479007#4 11737884#0 11737884#1 11737884#3 625866890 293149229#0 293149229#1 293149229#2 293149229#3 293149229#4 625866891#0 625866891#2 293149228#0 293149228#1 402298704#0 302191269 E1 E4 E4.26"/>
  <!-- 6 (-11729090_E4.26.qPKW.240) -->
  <route id="0_16" edges="-11729090 -335532207#3 335532208#0 24864540#0 24864541 28727103#0 28727103#0.110 -294921205#1 -294921206#6 -294921206#3 -11750475 11697077#0"/>
  <!-- 4 (-11729090_11697077#0.qPKW.60) -->
  <route id="0_23" edges="-11742233#8 625479007#1 625479007#2 625479007#4 11737884#0 11737884#1 11737884#3 625866890 293149229#0 293149229#1 293149229#2 293149229#3 293149229#4 625866891#0 625866891#2 293149228#0 293149228#1 402298704#0 302191269 E1 E4 E4.26"/>
  <!-- 5 (-11742233#8_E4.26.qPKW.0) -->
  <route id="0_26" edges="-11820239#7.82 28727096#0 11750475 11720583 11826990#2 11826990#3 265895120#0 -320455187#3 -24864540#7 -335532208#1 -335532208#1.31 335532207#0 11729090"/>
  <!-- 3 (-11820239#7.82_11729090.qPKW.720) -->
  <route id="0_31" edges="-11820239#7.82 625479007#0 625479007#0.42 625479007#1 625479007#2 625479007#4 11737884#0 11737884#1 11737884#3 625866890 293149229#0 293149229#1 293149229#2 -868924670 26321030#0"/>
  <!-- 12 (-11820239#7.82_26321030#0.qPKW.180) -->
  <route id="0_33" edges="-11820239#7.82 625479007#0 625479007#0.42 625479007#1 625479007#2 625479007#4 11737884#0 11737884#1 11737884#3 625866890 293149229#0 293149229#1 293149229#2 293149229#3 293149229#4 625866891#0 625866891#2 11731871#0 -320948876#7"/>
  <!-- 12 (-11820239#7.82_-320948876#7.qPKW.180) -->
  <route id="0_36" edges="-11956778#0 294294299#2 -11747683#2 -932572338#1 -932572337 -11694981#11"/>
  <!-- 3 (-11956778#0_-11694981#11.qPKW.0) -->
  <route id="0_39" edges="-24850351#4 11684003#0 293149229#1 293149229#2 -868924670 294294299#7 294294299#8 294294299#9 714429624#0 714429624#0.162 293149231#0 913301010 913305096 -28727103#6 -28727103#3 -320455187#3 -24864540#7 -335532208#1 -335532208#1.31 335532207#0 11729090"/>
  <!-- 8 (-24850351#4_11729090.qPKW.0) -->
  <route id="0_41" edges="-24850351#4 11684003#0 293149229#1 293149229#2 293149229#3 293149229#4 625866891#0 625866891#2 293149228#0 293149228#1 11853134#0 -1092594708"/>
  <!-- 4 (-24850351#4_-1092594708.qPKW.840) -->
  <route id="0_48" edges="-26321030#5 294294299#7 294294299#8 294294299#9 714429624#0 714429624#0.162 293149231#0 913301010 913305096 -28727103#6 -28727103#3 -320455187#3 -24864540#7 -335532208#1 -335532208#1.31 -11837579#6 -11837579#2 -11837579#2.39 292851770#0"/>
  <!-- 2 (-26321030#5_292851770#0.qPKW.300) -->
  <route id="0_51" edges="-26321030#5 294294299#7 294294299#8 294294299#9 714429624#0 714429624#0.162 293149231#0 913301010 913305096 11834237#0 11834237#1 28727096#0 28727096#1 625851681#0 625361998#0 625361998#3 625361998#4 -1057194119#5"/>
  <!-- 4 (-26321030#5_-1057194119#5.qPKW.960) -->
  <route id="0_52" edges="-26321030#5 294294299#7 294294299#8 835563573#0 11834136 24850351#0"/>
  <!-- 9 (-26321030#5_24850351#0.qPKW.60) -->
  <route id="0_55" edges="-292851770#0 -625361998#5 -625361998#3 -625361998#3.164 -625851681#2 -28727096#3 -28727096#0 625479007#0 625479007#0.42 625479007#1 625479007#2 625479007#4 11737884#0 11737884#1 11737884#3 625866890 293149229#0 293149229#1 293149229#2 293149229#3 293149229#4 625866891#0 625866891#2 293149228#0 293149228#1 402298704#0 302191269 E1 E4 E4.26"/>
  <!-- 390 (custom_1) -->
  <route id="0_57" edges="-292851770#0 -625361998#5 -625361998#3 -625361998#3.164 11805275#0 11805275#2 1022429027 392332379"/>
  <!-- 13 (-292851770#0_392332379.qPKW.120) -->
  <route id="0_58" edges="-292851770#0 -625361998#5 -625361998#3 -625361998#3.164 11955884#0 346964423#0"/>
  <!-- 19 (-292851770#0_346964423#0.qPKW.0) -->
  <route id="0_59" edges="-346964424#2 1022429029"/>
  <!-- 18 (-346964424#2_1022429029.qPKW.0) -->
  <route id="0_61" edges="-392332379 -1022429027 -11805275#4 -11805275#1 11955884#0 1022429029"/>
  <!-- 3 (-392332379_1022429029.qPKW.60) -->
  <route id="0_65" edges="-392332379 -1022429027 -11805275#4 -294921129#2 -11826990#1 11960711#0 11960711#0.74 11960711#0.133"/>
  <!-- 5 (-392332379_11960711#0.133.qPKW.1020) -->
  <route id="0_66" edges="-392332379 -1022429027 -313330279#2 -11826990#2 -11826990#1 11960711#0 11960711#0.74 11960711#0.133"/>
  <!-- 1 (-392332379_11960711#0.133.1.qPKW.1020) -->
  <route id="0_67" edges="-392332379 -1022429027 -313330279#2 121054524#0 -294921206#3 -11750475 -28727096#0 625479007#0 625479007#0.42 625479007#1 625479007#2 625479007#4 11737884#0 11737884#1 11737884#3 625866890 11834136 24850351#0"/>
  <!-- 5 (-392332379_24850351#0.qPKW.1140) -->
  <route id="0_68" edges="-392332379 -265895121 -11826990#3 -11826990#2 -11826990#1 11960711#0 11960711#0.74 11960711#0.133"/>
  <!-- 5 (-392332379_11960711#0.133.1.qPKW.120) -->
  <route id="0_70" edges="-911068789#6.171 -11747683#2 -932572338#1 -932572337 625866891#0 -756749111 -11957732"/>
  <!-- 6 (-911068789#6.171_-11957732.qPKW.480) -->
  <route id="0_72" edges="-911068789#6.171 294294299#5 294294299#6 -11690285#2 293149229#3 1035459376#0"/>
  <!-- 8 (-911068789#6.171_1035459376#0.qPKW.60) -->
  <route id="0_76" edges="-911068789#6.171 294294299#5 294294299#6 294294299#7 294294299#8 294294299#9 714429624#0 714429624#0.162 293149231#0 913301010 913305096 -28727103#6 -28727103#3 -265895120#1 -11826990#3 -11826990#2 -11826990#1 11960711#0 11960711#0.74 11960711#0.133"/>
  <!-- 16 (-911068789#6.171_11960711#0.133.qPKW.120) -->
  <route id="0_78" edges="-911068789#6.171 294294299#5 294294299#6 294294299#7 294294299#8 294294299#9 714429624#0 714429624#0.162 293149231#0 913301010 913305096 -28727103#6 -28727103#3 -320455187#3 -24864540#7 -335532208#1 -335532208#1.31 -11837579#6 -11837579#2 -11837579#2.39 -625361998#5 -11853299#3"/>
  <!-- 6 (-911068789#6.171_-11853299#3.qPKW.960) -->
  <route id="0_85" edges="-966308107#4 -966308107#4.550 -966308107#4.611 -966308107#4.442 -28727096#3 -28727096#0 625479007#0 625479007#0.42 625479007#1 625479007#2 -11825574#6"/>
  <!-- 7 (-966308107#4_-11825574#6.qPKW.900) -->
  <route id="0_91" edges="-966308107#4 -966308107#4.550 -966308107#4.611 -966308107#4.442 -28727096#3 11750475 294921206#0 294921206#4 294921205#0 28727103#4 11834237#0 11834237#1 625479007#0 625479007#0.42 625479007#1 625479007#2 625479007#4 11737884#0 11737884#1 11737884#3 625866890 293149229#0 293149229#1 293149229#2 293149229#3 293149229#4 625866891#0 625866891#2 293149228#0 293149228#1 402298704#0 302191269 E1 E4 E4.26"/>
  <!-- 13 (-966308107#4_E4.26.qPKW.300) -->
  <route id="0_93" edges="-966308107#4 -966308107#4.550 -966308107#4.611 -966308107#4.442 11826990#0 11826990#2 11826990#3 265895120#0 -320455187#3 -24864540#7 -335532208#1 -335532208#1.31 335532207#0 11729090"/>
  <!-- 21 (-966308107#4_11729090.qPKW.0) -->
  <route id="0_101" edges="1038117874#0 294294285 359652179#0 11737884#0 11737884#1 11737884#3 625866890 293149229#0 293149229#1 293149229#2 293149229#3 293149229#4 625866891#0 625866891#2 293149228#0 293149228#1 11853134#0 -1092594708"/>
  <!-- 10 (1038117874#0_-1092594708.qPKW.120) -->
  <route id="0_105" edges="1038117874#0 294294285 359652179#0 926031003 11956345 926031004#0 293149231#0 -910977765#2 -913304415"/>
  <!-- 20 (1038117874#0_-913304415.qPKW.360) -->
  <route id="0_107" edges="1041017537 -1092594708"/>
  <!-- 29 (1041017537_-1092594708.qPKW.0) -->
  <route id="0_108" edges="1041017537 1053139777 625486449#2 -320948876#7"/>
  <!-- 69 (1041017537_-320948876#7.qPKW.0) -->
  <route id="0_113" edges="1041017537 1053139777 625486449#2 294294299#0 294294299#2 294294299#5 294294299#6 294294299#7 294294299#8 294294299#9 714429624#0 714429624#0.162 293149231#0 913301010 913305096 -28727103#6 -28727103#3 -265895120#1 -11826990#3 -11826990#2 -11826990#1 625851681#0 625361998#0 625361998#3 625361998#4 292851770#0"/>
  <!-- 9 (1041017537_292851770#0.qPKW.60) -->
  <route id="0_114" edges="1041017537 1053139777 625486449#2 294294299#0 294294299#2 294294299#5 294294299#6 294294299#7 294294299#8 294294299#9 714429624#0 714429624#0.162 293149231#0 913301010 913305096 -28727103#6 -28727103#3 -320455187#3 -24864540#7 -335532208#1 -335532208#1.31 335532207#0 11729090"/>
  <!-- 98 (custom_2) -->
  <route id="0_115" edges="1041017537 1053139777 625486449#2 294294299#0 294294299#2 911068789#0"/>
  <!-- 32 (1041017537_911068789#0.qPKW.240) -->
  <route id="0_117" edges="1057194119#0 1057194119#0.751 -625361998#5 -625361998#3 -625361998#3.164 -625851681#2 -28727096#3 -28727096#0 625479007#0 625479007#0.42 625479007#1 625479007#2 625479007#4 11737884#0 11737884#1 11737884#3 11957936#0 -62343617#1"/>
  <!-- 9 (1057194119#0_-62343617#1.qPKW.1320) -->
  <route id="0_119" edges="1057194119#0 1057194119#0.751 -625361998#5 -625361998#3 -625361998#3.164 -625851681#2 11826990#0 -294921138#2 -11750475 -28727096#0 625479007#0 625479007#0.42 625479007#1 625479007#2 625479007#4 11737884#0 11737884#1 11737884#3 625866890 293149229#0 293149229#1 293149229#2 293149229#3 293149229#4 -11694981#11"/>
  <!-- 2 (1057194119#0_-11694981#11.qPKW.1200) -->
  <route id="0_122" edges="1057194119#0 1057194119#0.751 11837579#0 11837579#3 335532207#0 11729090"/>
  <!-- 27 (1057194119#0_11729090.1.qPKW.60) -->
  <route id="0_127" edges="11683958#0 910977765#0 913301010 913305096 11834237#0 11834237#1 28727096#0 11697077#0"/>
  <!-- 8 (11683958#0_11697077#0.qPKW.0) -->
  <route id="0_128" edges="11683958#0 910977765#0 913301010 913305096 11834237#0 11834237#1 625479007#0 625479007#0.42 11742233#0"/>
  <!-- 6 (11683958#0_11742233#0.qPKW.180) -->
  <route id="0_129" edges="11683958#0 910977765#0 913301010 913305096 11834237#0 11834237#1 625479007#0 625479007#0.42 625479007#1 -11833004#2"/>
  <!-- 8 (11683958#0_-11833004#2.qPKW.0) -->
  <route id="0_131" edges="11694981#7 625866891#0 625866891#2 11731871#0 -320948876#7"/>
  <!-- 1 (11694981#7_-320948876#7.qPKW.0) -->
  <route id="0_136" edges="11694981#7 932572337 932572338#0 11747683#0 294294299#5 294294299#6 294294299#7 294294299#8 294294299#9 714429624#0 714429624#0.162 -11734068#2"/>
  <!-- 5 (11694981#7_-11734068#2.qPKW.720) -->
  <route id="0_141" edges="11694981#7 932572337 932572338#0 11747683#0 294294299#5 294294299#6 294294299#7 294294299#8 294294299#9 714429624#0 714429624#0.162 293149231#0 913301010 913305096 11834237#0 11834237#1 28727096#0 11697077#0"/>
  <!-- 4 (11694981#7_11697077#0.qPKW.900) -->
  <route id="0_142" edges="11694981#7 932572337 932572338#0 11747683#0 294294299#5 294294299#6 294294299#7 294294299#8 294294299#9 714429624#0 714429624#0.162 293149231#0 913301010 913305096 11834237#0 11834237#1 28727096#0 28727096#1 625851681#0 11955884#0 1022429029"/>
  <!-- 31 (11694981#7_1022429029.qPKW.1080) -->
  <route id="0_145" edges="11694981#7 932572337 932572338#0 11747683#0 911068789#0"/>
  <!-- 6 (11694981#7_911068789#0.qPKW.0) -->
  <route id="0_146" edges="11734068#0 -926031004#1 -11956345 -926031003 -359652179#1 -294294285 -1038117874#1"/>
  <!-- 22 (11734068#0_-1038117874#1.qPKW.0) -->
  <route id="0_151" edges="11809341#0 11737884#1 11737884#3 625866890 293149229#0 293149229#1 293149229#2 293149229#3 293149229#4 625866891#0 625866891#2 293149228#0 293149228#1 11853134#0 -1092594708"/>
  <!-- 6 (11809341#0_-1092594708.qPKW.840) -->
  <route id="0_153" edges="11809341#0 11737884#1 11737884#3 625866890 293149229#0 293149229#1 293149229#2 293149229#3 293149229#4 932572337 932572338#0 11747683#0 911068789#0"/>
  <!-- 2 (11809341#0_911068789#0.qPKW.660) -->
  <route id="0_158" edges="11825574#0 625479007#4 11737884#0 11737884#1 11737884#3 625866890 293149229#0 293149229#1 293149229#2 293149229#3 293149229#4 625866891#0 625866891#2 293149228#0 293149228#1 11853134#0 -1092594708"/>
  <!-- 3 (11825574#0_-1092594708.qPKW.600) -->
  <route id="0_160" edges="11825574#0 625479007#4 926031003 11956345 926031004#0 -11734068#2"/>
  <!-- 4 (11825574#0_-11734068#2.qPKW.720) -->
  <route id="0_169" edges="11833004#0 625479007#2 625479007#4 926031003 11956345 926031004#0 293149231#0 913301010 913305096 -28727103#6 -28727103#3 -320455187#3 -24864540#7 -335532208#1 -335532208#1.31 335532207#0 11729090"/>
  <!-- 8 (11833004#0_11729090.qPKW.360) -->
  <route id="0_170" edges="11833510#6.169 294294299#6 -11690285#2 293149229#3 1035459376#0"/>
  <!-- 3 (11833510#6.169_1035459376#0.qPKW.900) -->
  <route id="0_172" edges="11833510#6.169 294294299#6 -11690285#2 293149229#3 293149229#4 625866891#0 625866891#2 293149228#0 293149228#1 402298704#0 302191269 E1 E4 E4.26"/>
  <!-- 7 (11833510#6.169_E4.26.qPKW.1380) -->
  <route id="0_188" edges="11839510#0 11957936#0 714429624#0 714429624#0.162 -11734068#2"/>
  <!-- 2 (11839510#0_-11734068#2.qPKW.600) -->
  <route id="0_193" edges="11839510#0 625866890 293149229#0 293149229#1 293149229#2 293149229#3 293149229#4 625866891#0 625866891#2 293149228#0 293149228#1 402298704#0 302191269 E1 E4 E4.26"/>
  <!-- 13 (11839510#0_E4.26.qPKW.0) -->
  <route id="0_194" edges="11853299#0 -625361998#3 -625361998#3.164 11805275#0 11805275#2 1022429027 392332379"/>
  <!-- 5 (11853299#0_392332379.qPKW.420) -->
  <route id="0_195" edges="11957732 756749111 625866891#2 293149228#0 293149228#1 11853134#0 -1092594708"/>
  <!-- 5 (11957732_-1092594708.qPKW.180) -->
  <route id="0_196" edges="294921219#0 11737884#3 11957936#0 -62343617#1"/>
  <!-- 10 (294921219#0_-62343617#1.qPKW.1020) -->
  <route id="0_201" edges="317788870#3 -11853134#1 402298704#0 302191269 E1 E4 E4.26"/>
  <!-- 25 (317788870#3_E4.26.qPKW.0) -->
  <route id="0_202" edges="317788870#3 1053139777 625486449#2 294294299#0 11956778#0"/>
  <!-- 3 (317788870#3_11956778#0.qPKW.0) -->
  <route id="0_205" edges="317788870#3 1053139777 625486449#2 294294299#0 294294299#2 294294299#5 294294299#6 294294299#7 294294299#8 294294299#9 714429624#0 714429624#0.162 -11734068#2"/>
  <!-- 9 (317788870#3_-11734068#2.qPKW.300) -->
  <route id="0_206" edges="317788870#3 1053139777 625486449#2 294294299#0 294294299#2 294294299#5 294294299#6 294294299#7 294294299#8 294294299#9 714429624#0 714429624#0.162 -926031004#1 -11956345 -926031003 -359652179#1 -294294285 -1038117874#1"/>
  <!-- 6 (317788870#3_-1038117874#1.qPKW.1260) -->
  <route id="0_208" edges="317788870#3 1053139777 625486449#2 294294299#0 294294299#2 294294299#5 294294299#6 294294299#7 294294299#8 294294299#9 714429624#0 714429624#0.162 293149231#0 913301010 913305096 -28727103#6 -28727103#3 -265895120#1 -11826990#3 -11826990#2 -11826990#1 11960711#0 11960711#0.74 11960711#0.133"/>
  <!-- 6 (317788870#3_11960711#0.133.qPKW.420) -->
  <route id="0_211" edges="320948876#7 -11731871#2 293149228#0 293149228#1 402298704#0 302191269 E1 E4 E4.26"/>
  <!-- 24 (320948876#7_E4.26.qPKW.0) -->
  <route id="0_212" edges="320948876#7 294294299#0 294294299#2 -11747683#2 -932572338#1 -932572337 -11694981#11"/>
  <!-- 35 (320948876#7_-11694981#11.qPKW.0) -->
  <route id="0_214" edges="320948876#7 294294299#0 294294299#2 294294299#5 294294299#6 294294299#7 294294299#8 294294299#9 -62343617#1"/>
  <!-- 3 (320948876#7_-62343617#1.qPKW.120) -->
  <route id="0_217" edges="320948876#7 294294299#0 294294299#2 294294299#5 294294299#6 294294299#7 294294299#8 294294299#9 714429624#0 714429624#0.162 293149231#0 913301010 913305096 -28727103#6 -28727103#3 -320455187#3 -24864540#7 -335532208#1 -335532208#1.31 -11837579#6 -11837579#2 -11837579#2.39 -1057194119#5"/>
  <!-- 18 (320948876#7_-1057194119#5.qPKW.0) -->
  <route id="0_218" edges="320948876#7 294294299#0 294294299#2 294294299#5 294294299#6 294294299#7 294294299#8 294294299#9 714429624#0 714429624#0.162 293149231#0 913301010 913305096 -28727103#6 -28727103#3 -320455187#3 -24864540#7 -335532208#1 -335532208#1.31 335532207#0 11729090"/>
  <!-- 8 (320948876#7_11729090.qPKW.0) -->
  <route id="0_221" edges="62343617#0 714429624#0 714429624#0.162 293149231#0 913301010 913305096 -28727103#6 -28727103#3 -320455187#3 -24864540#7 -335532208#1 -335532208#1.31 -11837579#6 -11837579#2 -11837579#2.39 -625361998#5 -625361998#3 11956950#0"/>
  <!-- 4 (62343617#0_11956950#0.qPKW.780) -->
  <route id="0_224" edges="62343617#0 714429624#0 714429624#0.162 293149231#0 913301010 913305096 11834237#0 11834237#1 11820239#0"/>
  <!-- 21 (62343617#0_11820239#0.qPKW.780) -->
  <route id="0_236" edges="867813759#0 835563573#0 293149229#0 293149229#1 293149229#2 293149229#3 293149229#4 625866891#0 625866891#2 293149228#0 293149228#1 402298704#0 302191269 E1 E4 E4.26"/>
  <!-- 17 (867813759#0_E4.26.qPKW.0) -->
  <route id="0_237" edges="911068791#0 294294299#8 294294299#9 714429624#0 714429624#0.162 293149231#0 913301010 913305096 -28727103#6 -28727103#3 -265895120#1 -11826990#3 -11826990#2 -11826990#1 11960711#0 11960711#0.74 11960711#0.133"/>
  <!-- 7 (911068791#0_11960711#0.133.qPKW.120) -->
  <route id="0_247" edges="911068791#0 294294299#8 294294299#9 714429624#0 714429624#0.162 293149231#0 913301010 913305096 11834237#0 11840126 294921122#0 1022429026 392332379"/>
  <!-- 3 (911068791#0_392332379.1.qPKW.1260) -->
  <route id="0_249" edges="911068791#0 911068791#2 293149229#2 293149229#3 1035459376#0"/>
  <!-- 4 (911068791#0_1035459376#0.qPKW.0) -->
  <route id="0_250" edges="911068791#0 911068791#2 293149229#2 293149229#3 293149229#4 -11694981#11"/>
  <!-- 13 (911068791#0_-11694981#11.1.qPKW.0) -->
  <flow id="0_4" begin="0.00" end="2998.67" number="14" route="0_4" departSpeed="max" type="car" departLane="best"/>
  <flow id="0_78" begin="2.66" end="3147.67" number="6" route="0_78" departSpeed="max" type="car" departLane="best"/>
  <flow id="0_142" begin="5.32" end="3584.04" number="31" route="0_142" departSpeed="max" type="car" departLane="best"/>
  <flow id="0_108" begin="7.98" end="3557.43" number="69" route="0_108" departSpeed="max" type="car" departLane="best"/>
  <flow id="0_115" begin="10.64" end="3309.98" number="32" route="0_115" departSpeed="max" type="car" departLane="best"/>
  <flow id="0_217" begin="13.30" end="3496.23" number="18" route="0_217" departSpeed="max" type="car" departLane="best"/>
  <flow id="0_129" begin="18.63" end="2735.25" number="8" route="0_129" departSpeed="max" type="car" departLane="best"/>
  <flow id="0_76" begin="21.29" end="3192.90" number="16" route="0_76" departSpeed="max" type="car" departLane="best"/>
  <flow id="0_113" begin="23.95" end="3405.76" number="9" route="0_113" departSpeed="max" type="car" departLane="best"/>
  <flow id="0_72" begin="26.61" end="3283.37" number="8" route="0_72" departSpeed="max" type="car" departLane="best"/>
  <flow id="0_55" begin="29.27" end="3578.71" number="390" route="0_55" departSpeed="max" type="car" departLane="best"/>
  <flow id="0_212" begin="31.93" end="3576.05" number="35" route="0_212" departSpeed="max" type="car" departLane="best"/>
  <flow id="0_114" begin="34.59" end="3594.68" number="98" route="0_114" departSpeed="max" type="car" departLane="best"/>
  <flow id="0_224" begin="42.57" end="3592.02" number="21" route="0_224" departSpeed="max" type="car" departLane="best"/>
  <flow id="0_205" begin="45.23" end="3363.19" number="9" route="0_205" departSpeed="max" type="car" departLane="best"/>
  <flow id="0_1" begin="50.55" end="3533.48" number="38" route="0_1" departSpeed="max" type="car" departLane="best"/>
  <flow id="0_93" begin="53.22" end="3211.53" number="21" route="0_93" departSpeed="max" type="car" departLane="best"/>
  <flow id="0_107" begin="55.88" end="3419.07" number="29" route="0_107" departSpeed="max" type="car" departLane="best"/>
  <flow id="0_58" begin="58.54" end="3498.89" number="19" route="0_58" departSpeed="max" type="car" departLane="best"/>
  <flow id="0_211" begin="63.86" end="3546.78" number="24" route="0_211" departSpeed="max" type="car" departLane="best"/>
  <flow id="0_59" begin="69.18" end="3214.19" number="18" route="0_59" departSpeed="max" type="car" departLane="best"/>
  <flow id="0_195" begin="71.84" end="3171.62" number="5" route="0_195" departSpeed="max" type="car" departLane="best"/>
  <flow id="0_15" begin="74.50" end="2554.32" number="6" route="0_15" departSpeed="max" type="car" departLane="best"/>
  <flow id="0_201" begin="95.79" end="3490.91" number="25" route="0_201" departSpeed="max" type="car" departLane="best"/>
  <flow id="0_169" begin="98.45" end="3586.70" number="8" route="0_169" departSpeed="max" type="car" departLane="best"/>
  <flow id="0_33" begin="103.77" end="3152.99" number="12" route="0_33" departSpeed="max" type="car" departLane="best"/>
  <flow id="0_145" begin="125.06" end="3320.62" number="6" route="0_145" departSpeed="max" type="car" departLane="best"/>
  <flow id="0_11" begin="149.00" end="3357.87" number="9" route="0_11" departSpeed="max" type="car" departLane="best"/>
  <flow id="0_128" begin="154.32" end="2458.54" number="6" route="0_128" departSpeed="max" type="car" departLane="best"/>
  <flow id="0_236" begin="159.65" end="3501.55" number="17" route="0_236" departSpeed="max" type="car" departLane="best"/>
  <flow id="0_105" begin="210.20" end="3514.86" number="20" route="0_105" departSpeed="max" type="car" departLane="best"/>
  <flow id="0_91" begin="215.52" end="3083.81" number="13" route="0_91" departSpeed="max" type="car" departLane="best"/>
  <flow id="0_250" begin="218.18" end="3057.21" number="13" route="0_250" departSpeed="max" type="car" departLane="best"/>
  <flow id="0_146" begin="220.84" end="3384.48" number="22" route="0_146" departSpeed="max" type="car" departLane="best"/>
  <flow id="0_31" begin="231.49" end="3294.01" number="12" route="0_31" departSpeed="max" type="car" departLane="best"/>
  <flow id="0_136" begin="242.13" end="3206.21" number="5" route="0_136" departSpeed="max" type="car" departLane="best"/>
  <flow id="0_193" begin="252.77" end="3597.34" number="13" route="0_193" departSpeed="max" type="car" departLane="best"/>
  <flow id="0_61" begin="258.09" end="2104.66" number="3" route="0_61" departSpeed="max" type="car" departLane="best"/>
  <flow id="0_237" begin="287.36" end="3560.09" number="7" route="0_237" departSpeed="max" type="car" departLane="best"/>
  <flow id="0_57" begin="295.34" end="3227.49" number="13" route="0_57" departSpeed="max" type="car" departLane="best"/>
  <flow id="0_122" begin="305.99" end="3512.20" number="27" route="0_122" departSpeed="max" type="car" departLane="best"/>
  <flow id="0_196" begin="348.56" end="2988.03" number="10" route="0_196" departSpeed="max" type="car" departLane="best"/>
  <flow id="0_65" begin="353.88" end="3341.91" number="5" route="0_65" departSpeed="max" type="car" departLane="best"/>
  <flow id="0_16" begin="380.49" end="1718.85" number="4" route="0_16" departSpeed="max" type="car" departLane="best"/>
  <flow id="0_68" begin="391.13" end="2647.45" number="5" route="0_68" departSpeed="max" type="car" departLane="best"/>
  <flow id="0_151" begin="425.72" end="3520.18" number="6" route="0_151" departSpeed="max" type="car" departLane="best"/>
  <flow id="0_23" begin="481.60" end="3570.73" number="5" route="0_23" departSpeed="max" type="car" departLane="best"/>
  <flow id="0_39" begin="484.26" end="3581.37" number="8" route="0_39" departSpeed="max" type="car" departLane="best"/>
  <flow id="0_221" begin="486.92" end="3131.71" number="4" route="0_221" departSpeed="max" type="car" departLane="best"/>
  <flow id="0_249" begin="497.56" end="3451.00" number="4" route="0_249" departSpeed="max" type="car" departLane="best"/>
  <flow id="0_41" begin="510.86" end="3562.75" number="4" route="0_41" departSpeed="max" type="car" departLane="best"/>
  <flow id="0_14" begin="590.69" end="2309.53" number="5" route="0_14" departSpeed="max" type="car" departLane="best"/>
  <flow id="0_172" begin="614.63" end="3216.85" number="7" route="0_172" departSpeed="max" type="car" departLane="best"/>
  <flow id="0_214" begin="673.17" end="1500.67" number="3" route="0_214" departSpeed="max" type="car" departLane="best"/>
  <flow id="0_153" begin="686.47" end="3347.23" number="2" route="0_153" departSpeed="max" type="car" departLane="best"/>
  <flow id="0_218" begin="710.42" end="3035.92" number="8" route="0_218" departSpeed="max" type="car" departLane="best"/>
  <flow id="0_67" begin="758.31" end="3472.28" number="5" route="0_67" departSpeed="max" type="car" departLane="best"/>
  <flow id="0_52" begin="768.96" end="3097.12" number="9" route="0_52" departSpeed="max" type="car" departLane="best"/>
  <flow id="0_51" begin="827.49" end="3317.96" number="4" route="0_51" departSpeed="max" type="car" departLane="best"/>
  <flow id="0_202" begin="854.10" end="2953.44" number="3" route="0_202" departSpeed="max" type="car" departLane="best"/>
  <flow id="0_131" begin="1032.37" end="1033.37" number="1" route="0_131" departSpeed="max" type="car" departLane="best"/>
  <flow id="0_247" begin="1043.02" end="1436.81" number="3" route="0_247" departSpeed="max" type="car" departLane="best"/>
  <flow id="0_170" begin="1072.28" end="3437.69" number="3" route="0_170" departSpeed="max" type="car" departLane="best"/>
  <flow id="0_101" begin="1133.48" end="3504.21" number="10" route="0_101" departSpeed="max" type="car" departLane="best"/>
  <flow id="0_206" begin="1144.12" end="3538.80" number="6" route="0_206" departSpeed="max" type="car" departLane="best"/>
  <flow id="0_70" begin="1197.34" end="3094.46" number="6" route="0_70" departSpeed="max" type="car" departLane="best"/>
  <flow id="0_127" begin="1200.00" end="3411.09" number="8" route="0_127" departSpeed="max" type="car" departLane="best"/>
  <flow id="0_160" begin="1210.64" end="2522.39" number="4" route="0_160" departSpeed="max" type="car" departLane="best"/>
  <flow id="0_188" begin="1226.61" end="2131.26" number="2" route="0_188" departSpeed="max" type="car" departLane="best"/>
  <flow id="0_194" begin="1255.88" end="3589.36" number="5" route="0_194" departSpeed="max" type="car" departLane="best"/>
  <flow id="0_208" begin="1263.86" end="3230.16" number="6" route="0_208" departSpeed="max" type="car" departLane="best"/>
  <flow id="0_0" begin="1274.50" end="3150.33" number="9" route="0_0" departSpeed="max" type="car" departLane="best"/>
  <flow id="0_85" begin="1498.00" end="3488.25" number="7" route="0_85" departSpeed="max" type="car" departLane="best"/>
  <flow id="0_26" begin="1535.25" end="3453.66" number="3" route="0_26" departSpeed="max" type="car" departLane="best"/>
  <flow id="0_141" begin="1636.36" end="3397.78" number="4" route="0_141" departSpeed="max" type="car" departLane="best"/>
  <flow id="0_158" begin="1748.12" end="2660.75" number="3" route="0_158" departSpeed="max" type="car" departLane="best"/>
  <flow id="0_36" begin="1782.71" end="2655.43" number="3" route="0_36" departSpeed="max" type="car" departLane="best"/>
  <flow id="0_117" begin="1870.51" end="3544.12" number="9" route="0_117" departSpeed="max" type="car" departLane="best"/>
  <flow id="0_48" begin="1942.35" end="2123.28" number="2" route="0_48" departSpeed="max" type="car" departLane="best"/>
  <flow id="0_66" begin="2229.71" end="2230.71" number="1" route="0_66" departSpeed="max" type="car" departLane="best"/>
  <flow id="0_119" begin="2905.54" end="3286.03" number="2" route="0_119" departSpeed="max" type="car" departLane="best"/>
  <!-- begin="3600.0" end="7200.0" -->
  <route id="3600_0" edges="-1022429029 -11955884#3 -11955884#3.119 -625851681#2 -28727096#3 -28727096#0 625479007#0 625479007#0.42 625479007#1 625479007#2 625479007#4 11737884#0 -11809341#3"/>
  <!-- 4 (-1022429029_-11809341#3.qPKW.780) -->