<?xml version='1.0' encoding='utf-8'?>
<routes>
  <route id="-1022429029_392332379.2.qPKW.0" edges="-1022429029 -11955884#3 -11955884#3.119 11805275#0 11805275#2 1022429027 392332379"/>
  <route id="-1035459376#3_E4.26.qPKW.0" edges="-1035459376#3 293149229#4 625866891#0 625866891#2 293149228#0 293149228#1 402298704#0 302191269 E1 E4 E4.26"/>
  <route id="-11742233#8_E4.26.qPKW.0" edges="-11742233#8 625479007#1 625479007#2 625479007#4 11737884#0 11737884#1 11737884#3 625866890 293149229#0 293149229#1 293149229#2 293149229#3 293149229#4 625866891#0 625866891#2 293149228#0 293149228#1 402298704#0 302191269 E1 E4 E4.26"/>
  <route id="-11820239#7.82_-1057194119#5.2.qPKW.0" edges="-11820239#7.82 28727096#0 28727096#1 625851681#0 625361998#0 625361998#3 625361998#4 -1057194119#5"/>
  <route id="-11956778#0_-11694981#11.qPKW.0" edges="-11956778#0 294294299#2 -11747683#2 -932572338#1 -932572337 -11694981#11"/>
  <route id="-24850351#4_11729090.qPKW.0" edges="-24850351#4 11684003#0 293149229#1 293149229#2 -868924670 294294299#7 294294299#8 294294299#9 714429624#0 714429624#0.162 293149231#0 913301010 913305096 -28727103#6 -28727103#3 -320455187#3 -24864540#7 -335532208#1 -335532208#1.31 335532207#0 11729090"/>
  <route id="-24850351#4_-320948876#7.qPKW.0" edges="-24850351#4 11684003#0 293149229#1 293149229#2 293149229#3 293149229#4 625866891#0 625866891#2 11731871#0 -320948876#7"/>
  <route id="-26321030#5_-1038117874#1.qPKW.0" edges="-26321030#5 294294299#7 294294299#8 294294299#9 714429624#0 714429624#0.162 -926031004#1 -11956345 -926031003 -359652179#1 -294294285 -1038117874#1"/>
  <route id="-292851770#0_346964423#0.qPKW.0" edges="-292851770#0 -625361998#5 -625361998#3 -625361998#3.164 11955884#0 346964423#0"/>
  <route id="-346964424#2_1022429029.qPKW.0" edges="-346964424#2 1022429029"/>
  <route id="-392332379_346964423#0.qPKW.0" edges="-392332379 -1022429027 -11805275#4 -11805275#1 11955884#0 346964423#0"/>
  <route id="-392332379_-1057194119#5.qPKW.0" edges="-392332379 -1022429027 -11805275#4 -11805275#1 625361998#0 625361998#3 625361998#4 -1057194119#5"/>
  <route id="-911068789#6.171_-62343617#1.qPKW.0" edges="-911068789#6.171 294294299#5 294294299#6 294294299#7 294294299#8 294294299#9 -62343617#1"/>
  <route id="-911068789#6.171_11729090.qPKW.0" edges="-911068789#6.171 294294299#5 294294299#6 294294299#7 294294299#8 294294299#9 714429624#0 714429624#0.162 293149231#0 913301010 913305096 -28727103#6 -28727103#3 -320455187#3 -24864540#7 -335532208#1 -335532208#1.31 335532207#0 11729090"/>
  <route id="-911068789#6.171_-1057194119#5.qPKW.0" edges="-911068789#6.171 294294299#5 294294299#6 294294299#7 294294299#8 294294299#9 714429624#0 714429624#0.162 293149231#0 913301010 913305096 11834237#0 11834237#1 28727096#0 28727096#1 625851681#0 625361998#0 625361998#3 625361998#4 -1057194119#5"/>
  <route id="-966308107#4_11729090.qPKW.0" edges="-966308107#4 -966308107#4.550 -966308107#4.611 -966308107#4.442 11826990#0 11826990#2 11826990#3 265895120#0 -320455187#3 -24864540#7 -335532208#1 -335532208#1.31 335532207#0 11729090"/>
  <route id="-966308107#4_-1057194119#5.qPKW.0" edges="-966308107#4 -966308107#4.550 -966308107#4.611 -966308107#4.442 625851681#0 625361998#0 625361998#3 625361998#4 -1057194119#5"/>
  <route id="1038117874#0_E4.26.qPKW.0" edges="1038117874#0 294294285 359652179#0 11737884#0 11737884#1 11737884#3 625866890 293149229#0 293149229#1 293149229#2 293149229#3 293149229#4 625866891#0 625866891#2 293149228#0 293149228#1 402298704#0 302191269 E1 E4 E4.26"/>
  <route id="1041017537_-1092594708.qPKW.0" edges="1041017537 -1092594708"/>
  <route id="1041017537_-320948876#7.qPKW.0" edges="1041017537 1053139777 625486449#2 -320948876#7"/>
  <route id="1057194119#0_292851770#0.qPKW.0" edges="1057194119#0 1057194119#0.751 292851770#0"/>
  <route id="11683958#0_11729090.qPKW.0" edges="11683958#0 910977765#0 913301010 913305096 -28727103#6 -28727103#3 -320455187#3 -24864540#7 -335532208#1 -335532208#1.31 335532207#0 11729090"/>
  <route id="11683958#0_11697077#0.qPKW.0" edges="11683958#0 910977765#0 913301010 913305096 11834237#0 11834237#1 28727096#0 11697077#0"/>
  <route id="11683958#0_-11833004#2.qPKW.0" edges="11683958#0 910977765#0 913301010 913305096 11834237#0 11834237#1 625479007#0 625479007#0.42 625479007#1 -11833004#2"/>
  <route id="11694981#7_-320948876#7.qPKW.0" edges="11694981#7 625866891#0 625866891#2 11731871#0 -320948876#7"/>
  <route id="11694981#7_-62343617#1.qPKW.0" edges="11694981#7 932572337 932572338#0 11747683#0 294294299#5 294294299#6 294294299#7 294294299#8 294294299#9 -62343617#1"/>
  <route id="11694981#7_-913304415.qPKW.0" edges="11694981#7 932572337 932572338#0 11747683#0 294294299#5 294294299#6 294294299#7 294294299#8 294294299#9 714429624#0 714429624#0.162 293149231#0 -910977765#2 -913304415"/>
  <route id="11694981#7_911068789#0.qPKW.0" edges="11694981#7 932572337 932572338#0 11747683#0 911068789#0"/>
  <route id="11734068#0_-1038117874#1.qPKW.0" edges="11734068#0 -926031004#1 -11956345 -926031003 -359652179#1 -294294285 -1038117874#1"/>
  <route id="11825574#0_1035459376#0.qPKW.0" edges="11825574#0 625479007#4 11737884#0 11737884#1 11737884#3 625866890 293149229#0 293149229#1 293149229#2 293149229#3 1035459376#0"/>
  <route id="11825574#0_E4.26.qPKW.0" edges="11825574#0 625479007#4 11737884#0 11737884#1 11737884#3 625866890 293149229#0 293149229#1 293149229#2 293149229#3 293149229#4 625866891#0 625866891#2 293149228#0 293149228#1 402298704#0 302191269 E1 E4 E4.26"/>
  <route id="11833004#0_E4.26.qPKW.0" edges="11833004#0 625479007#2 625479007#4 11737884#0 11737884#1 11737884#3 625866890 293149229#0 293149229#1 293149229#2 293149229#3 293149229#4 625866891#0 625866891#2 293149228#0 293149228#1 402298704#0 302191269 E1 E4 E4.26"/>
  <route id="11833510#6.169_24850351#0.qPKW.0" edges="11833510#6.169 294294299#6 294294299#7 294294299#8 835563573#0 11834136 24850351#0"/>
  <route id="11839510#0_-1092594708.qPKW.0" edges="11839510#0 625866890 293149229#0 293149229#1 293149229#2 293149229#3 293149229#4 625866891#0 625866891#2 293149228#0 293149228#1 11853134#0 -1092594708"/>
  <route id="11839510#0_E4.26.qPKW.0" edges="11839510#0 625866890 293149229#0 293149229#1 293149229#2 293149229#3 293149229#4 625866891#0 625866891#2 293149228#0 293149228#1 402298704#0 302191269 E1 E4 E4.26"/>
  <route id="317788870#3_E4.26.qPKW.0" edges="317788870#3 -11853134#1 402298704#0 302191269 E1 E4 E4.26"/>
  <route id="317788870#3_11956778#0.qPKW.0" edges="317788870#3 1053139777 625486449#2 294294299#0 11956778#0"/>
  <route id="317788870#3_-11694981#11.qPKW.0" edges="317788870#3 1053139777 625486449#2 294294299#0 294294299#2 -11747683#2 -932572338#1 -932572337 -11694981#11"/>
  <route id="320948876#7_E4.26.qPKW.0" edges="320948876#7 -11731871#2 293149228#0 293149228#1 402298704#0 302191269 E1 E4 E4.26"/>
  <route id="320948876#7_-11694981#11.qPKW.0" edges="320948876#7 294294299#0 294294299#2 -11747683#2 -932572338#1 -932572337 -11694981#11"/>
  <route id="320948876#7_26321030#0.qPKW.0" edges="320948876#7 294294299#0 294294299#2 294294299#5 294294299#6 26321030#0"/>
  <route id="320948876#7_-1057194119#5.qPKW.0" edges="320948876#7 294294299#0 294294299#2 294294299#5 294294299#6 294294299#7 294294299#8 294294299#9 714429624#0 714429624#0.162 293149231#0 913301010 913305096 -28727103#6 -28727103#3 -320455187#3 -24864540#7 -335532208#1 -335532208#1.31 -11837579#6 -11837579#2 -11837579#2.39 -1057194119#5"/>
  <route id="320948876#7_11729090.qPKW.0" edges="320948876#7 294294299#0 294294299#2 294294299#5 294294299#6 294294299#7 294294299#8 294294299#9 714429624#0 714429624#0.162 293149231#0 913301010 913305096 -28727103#6 -28727103#3 -320455187#3 -24864540#7 -335532208#1 -335532208#1.31 335532207#0 11729090"/>
  <route id="62343617#0_11729090.qPKW.0" edges="62343617#0 714429624#0 714429624#0.162 293149231#0 913301010 913305096 -28727103#6 -28727103#3 -320455187#3 -24864540#7 -335532208#1 -335532208#1.31 335532207#0 11729090"/>
  <route id="867813759#0_24850351#0.qPKW.0" edges="867813759#0 835563573#0 11834136 24850351#0"/>
  <route id="867813759#0_-11957732.qPKW.0" edges="867813759#0 835563573#0 293149229#0 293149229#1 293149229#2 293149229#3 293149229#4 625866891#0 -756749111 -11957732"/>
  <route id="867813759#0_E4.26.qPKW.0" edges="867813759#0 835563573#0 293149229#0 293149229#1 293149229#2 293149229#3 293149229#4 625866891#0 625866891#2 293149228#0 293149228#1 402298704#0 302191269 E1 E4 E4.26"/>
  <route id="911068791#0_24850351#0.qPKW.0" edges="911068791#0 294294299#8 835563573#0 11834136 24850351#0"/>
  <route id="911068791#0_1035459376#0.qPKW.0" edges="911068791#0 911068791#2 293149229#2 293149229#3 1035459376#0"/>
  <route id="911068791#0_-11694981#11.1.qPKW.0" edges="911068791#0 911068791#2 293149229#2 293149229#3 293149229#4 -11694981#11"/>
  <route id="-1035459376#3_-320948876#7.qPKW.60" edges="-1035459376#3 293149229#4 625866891#0 625866891#2 11731871#0 -320948876#7"/>
  <route id="-1035459376#3_-1092594708.qPKW.60" edges="-1035459376#3 293149229#4 625866891#0 625866891#2 293149228#0 293149228#1 11853134#0 -1092594708"/>
  <route id="-11729090_11960711#0.133.qPKW.60" edges="-11729090 -335532207#3 -11837579#6 -11837579#2 -11837579#2.39 -625361998#5 -625361998#3 -625361998#3.164 -625851681#2 11960711#0 11960711#0.74 11960711#0.133"/>
  <route id="-11729090_11697077#0.qPKW.60" edges="-11729090 -335532207#3 335532208#0 24864540#0 24864541 28727103#0 28727103#0.110 -294921205#1 -294921206#6 -294921206#3 -11750475 11697077#0"/>
  <route id="-11729090_E4.26.qPKW.60" edges="-11729090 -335532207#3 335532208#0 24864540#0 24864541 28727103#0 28727103#0.110 28727103#4 11834237#0 11834237#1 625479007#0 625479007#0.42 625479007#1 625479007#2 625479007#4 11737884#0 11737884#1 11737884#3 625866890 293149229#0 293149229#1 293149229#2 293149229#3 293149229#4 625866891#0 625866891#2 293149228#0 293149228#1 402298704#0 302191269 E1 E4 E4.26"/>
  <route id="-11820239#7.82_392332379.qPKW.60" edges="-11820239#7.82 28727096#0 28727096#1 625851681#0 11805275#0 11805275#2 1022429027 392332379"/>
  <route id="-24850351#4_26321030#0.qPKW.60" edges="-24850351#4 11684003#0 293149229#1 293149229#2 -868924670 26321030#0"/>
  <route id="-26321030#5_24850351#0.qPKW.60" edges="-26321030#5 294294299#7 294294299#8 835563573#0 11834136 24850351#0"/>
  <route id="-292851770#0_-1057194119#5.qPKW.60" edges="-292851770#0 -1057194119#5"/>
  <route id="-292851770#0_11960711#0.133.qPKW.60" edges="-292851770#0 -625361998#5 -625361998#3 -625361998#3.164 -625851681#2 11960711#0 11960711#0.74 11960711#0.133"/>
  <route id="-392332379_1022429029.qPKW.60" edges="-392332379 -1022429027 -11805275#4 -11805275#1 11955884#0 1022429029"/>
  <route id="-911068789#6.171_1035459376#0.qPKW.60" edges="-911068789#6.171 294294299#5 294294299#6 -11690285#2 293149229#3 1035459376#0"/>
  <route id="-911068789#6.171_292851770#0.qPKW.60" edges="-911068789#6.171 294294299#5 294294299#6 294294299#7 294294299#8 294294299#9 714429624#0 714429624#0.162 293149231#0 913301010 913305096 -28727103#6 -28727103#3 -320455187#3 -24864540#7 -335532208#1 -335532208#1.31 -11837579#6 -11837579#2 -11837579#2.39 292851770#0"/>
  <route id="-966308107#4_11729090.qPKW.60" edges="-966308107#4 -966308107#4.550 -966308107#4.611 -966308107#4.442 625851681#0 625361998#0 625361998#3 625361998#4 11837579#0 11837579#3 335532207#0 11729090"/>
  <route id="1038117874#0_-11734068#2.qPKW.60" edges="1038117874#0 294294285 359652179#0 926031003 11956345 926031004#0 -11734068#2"/>
  <route id="1041017537_26321030#0.qPKW.60" edges="1041017537 1053139777 625486449#2 294294299#0 294294299#2 294294299#5 294294299#6 26321030#0"/>
  <route id="1041017537_292851770#0.qPKW.60" edges="1041017537 1053139777 625486449#2 294294299#0 294294299#2 294294299#5 294294299#6 294294299#7 294294299#8 294294299#9 714429624#0 714429624#0.162 293149231#0 913301010 913305096 -28727103#6 -28727103#3 -265895120#1 -11826990#3 -11826990#2 -11826990#1 625851681#0 625361998#0 625361998#3 625361998#4 292851770#0"/>
  <route id="1057194119#0_392332379.qPKW.60" edges="1057194119#0 1057194119#0.751 -625361998#5 -625361998#3 -625361998#3.164 11805275#0 11805275#2 1022429027 392332379"/>
  <route id="1057194119#0_11729090.1.qPKW.60" edges="1057194119#0 1057194119#0.751 11837579#0 11837579#3 335532207#0 11729090"/>
  <route id="11694981#7_E4.26.qPKW.60" edges="11694981#7 625866891#0 625866891#2 293149228#0 293149228#1 402298704#0 302191269 E1 E4 E4.26"/>
  <route id="11825574#0_11729090.qPKW.60" edges="11825574#0 625479007#4 926031003 11956345 926031004#0 293149231#0 913301010 913305096 -28727103#6 -28727103#3 -320455187#3 -24864540#7 -335532208#1 -335532208#1.31 335532207#0 11729090"/>
  <route id="11839510#0_-62343617#1.qPKW.60" edges="11839510#0 11957936#0 -62343617#1"/>
  <route id="62343617#0_11960711#0.133.qPKW.60" edges="62343617#0 714429624#0 714429624#0.162 293149231#0 913301010 913305096 -28727103#6 -28727103#3 -265895120#1 -11826990#3 -11826990#2 -11826990#1 11960711#0 11960711#0.74 11960711#0.133"/>
  <route id="867813759#0_1035459376#0.qPKW.60" edges="867813759#0 835563573#0 293149229#0 293149229#1 293149229#2 293149229#3 1035459376#0"/>
  <route id="911068791#0_-1057194119#5.qPKW.60" edges="911068791#0 294294299#8 294294299#9 714429624#0 714429624#0.162 293149231#0 913301010 913305096 -28727103#6 -28727103#3 -320455187#3 -24864540#7 -335532208#1 -335532208#1.31 -11837579#6 -11837579#2 -11837579#2.39 -1057194119#5"/>
  <route id="-11820239#7.82_24850351#0.qPKW.120" edges="-11820239#7.82 625479007#0 625479007#0.42 625479007#1 625479007#2 625479007#4 11737884#0 11737884#1 11737884#3 625866890 11834136 24850351#0"/>
  <route id="-11956778#0_-62343617#1.qPKW.120" edges="-11956778#0 294294299#2 294294299#5 294294299#6 294294299#7 294294299#8 294294299#9 -62343617#1"/>
  <route id="-26321030#5_-913304415.qPKW.120" edges="-26321030#5 294294299#7 294294299#8 294294299#9 714429624#0 714429624#0.162 293149231#0 -910977765#2 -913304415"/>
  <route id="-26321030#5_11697077#0.qPKW.120" edges="-26321030#5 294294299#7 294294299#8 294294299#9 714429624#0 714429624#0.162 293149231#0 913301010 913305096 11834237#0 11834237#1 28727096#0 11697077#0"/>
  <route id="-292851770#0_-11809341#3.qPKW.120" edges="-292851770#0 -625361998#5 -625361998#3 -625361998#3.164 -625851681#2 -28727096#3 -28727096#0 625479007#0 625479007#0.42 625479007#1 625479007#2 625479007#4 11737884#0 -11809341#3"/>
  <route id="-292851770#0_392332379.qPKW.120" edges="-292851770#0 -625361998#5 -625361998#3 -625361998#3.164 11805275#0 11805275#2 1022429027 392332379"/>
  <route id="-392332379_11960711#0.133.qPKW.120" edges="-392332379 -1022429027 -11805275#4 -11805275#1 -625851681#2 11960711#0 11960711#0.74 11960711#0.133"/>
  <route id="-392332379_11960711#0.133.1.qPKW.120" edges="-392332379 -265895121 -11826990#3 -11826990#2 -11826990#1 11960711#0 11960711#0.74 11960711#0.133"/>
  <route id="-911068789#6.171_-11694981#11.qPKW.120" edges="-911068789#6.171 -11747683#2 -932572338#1 -932572337 -11694981#11"/>
  <route id="-911068789#6.171_11960711#0.133.qPKW.120" edges="-911068789#6.171 294294299#5 294294299#6 294294299#7 294294299#8 294294299#9 714429624#0 714429624#0.162 293149231#0 913301010 913305096 -28727103#6 -28727103#3 -265895120#1 -11826990#3 -11826990#2 -11826990#1 11960711#0 11960711#0.74 11960711#0.133"/>
  <route id="-966308107#4_392332379.qPKW.120" edges="-966308107#4 -966308107#4.550 -966308107#4.611 -966308107#4.442 625851681#0 11805275#0 11805275#2 1022429027 392332379"/>
  <route id="1038117874#0_-11694981#11.qPKW.120" edges="1038117874#0 294294285 359652179#0 11737884#0 11737884#1 11737884#3 625866890 293149229#0 293149229#1 293149229#2 293149229#3 293149229#4 -11694981#11"/>
  <route id="1038117874#0_-320948876#7.qPKW.120" edges="1038117874#0 294294285 359652179#0 11737884#0 11737884#1 11737884#3 625866890 293149229#0 293149229#1 293149229#2 293149229#3 293149229#4 625866891#0 625866891#2 11731871#0 -320948876#7"/>
  <route id="1038117874#0_-1092594708.qPKW.120" edges="1038117874#0 294294285 359652179#0 11737884#0 11737884#1 11737884#3 625866890 293149229#0 293149229#1 293149229#2 293149229#3 293149229#4 625866891#0 625866891#2 293149228#0 293149228#1 11853134#0 -1092594708"/>
  <route id="1041017537_-62343617#1.qPKW.120" edges="1041017537 1053139777 625486449#2 294294299#0 294294299#2 294294299#5 294294299#6 294294299#7 294294299#8 294294299#9 -62343617#1"/>
  <route id="1057194119#0_11960711#0.133.qPKW.120" edges="1057194119#0 1057194119#0.751 -625361998#5 -625361998#3 -625361998#3.164 -625851681#2 11960711#0 11960711#0.74 11960711#0.133"/>
  <route id="11809341#0_-11694981#11.qPKW.120" edges="11809341#0 11737884#1 11737884#3 625866890 293149229#0 293149229#1 293149229#2 293149229#3 293149229#4 -11694981#11"/>
  <route id="11833510#6.169_11960711#0.133.qPKW.120" edges="11833510#6.169 294294299#6 294294299#7 294294299#8 294294299#9 714429624#0 714429624#0.162 293149231#0 913301010 913305096 11834237#0 11840126 -294921206#6 -294921206#3 -11750475 28727096#1 11960711#0 11960711#0.74 11960711#0.133"/>
  <route id="294921219#0_-320948876#7.qPKW.120" edges="294921219#0 11737884#3 625866890 293149229#0 293149229#1 293149229#2 293149229#3 293149229#4 625866891#0 625866891#2 11731871#0 -320948876#7"/>
  <route id="320948876#7_-62343617#1.qPKW.120" edges="320948876#7 294294299#0 294294299#2 294294299#5 294294299#6 294294299#7 294294299#8 294294299#9 -62343617#1"/>
  <route id="867813759#0_11960711#0.133.qPKW.120" edges="867813759#0 294294299#9 714429624#0 714429624#0.162 293149231#0 913301010 913305096 -28727103#6 -28727103#3 -265895120#1 -11826990#3 -11826990#2 -11826990#1 11960711#0 11960711#0.74 11960711#0.133"/>
  <route id="867813759#0_-11694981#11.qPKW.120" edges="867813759#0 835563573#0 293149229#0 293149229#1 293149229#2 293149229#3 293149229#4 -11694981#11"/>
  <route id="911068791#0_11960711#0.133.qPKW.120" edges="911068791#0 294294299#8 294294299#9 714429624#0 714429624#0.162 293149231#0 913301010 913305096 -28727103#6 -28727103#3 -265895120#1 -11826990#3 -11826990#2 -11826990#1 11960711#0 11960711#0.74 11960711#0.133"/>
  <route id="911068791#0_-11957732.qPKW.120" edges="911068791#0 911068791#2 293149229#2 293149229#3 293149229#4 625866891#0 -756749111 -11957732"/>
  <route id="-11820239#7.82_26321030#0.qPKW.180" edges="-11820239#7.82 625479007#0 625479007#0.42 625479007#1 625479007#2 625479007#4 11737884#0 11737884#1 11737884#3 625866890 293149229#0 293149229#1 293149229#2 -868924670 26321030#0"/>
  <route id="-11820239#7.82_-11694981#11.qPKW.180" edges="-11820239#7.82 625479007#0 625479007#0.42 625479007#1 625479007#2 625479007#4 11737884#0 11737884#1 11737884#3 625866890 293149229#0 293149229#1 293149229#2 293149229#3 293149229#4 -11694981#11"/>
  <route id="-11820239#7.82_-320948876#7.qPKW.180" edges="-11820239#7.82 625479007#0 625479007#0.42 625479007#1 625479007#2 625479007#4 11737884#0 11737884#1 11737884#3 625866890 293149229#0 293149229#1 293149229#2 293149229#3 293149229#4 625866891#0 625866891#2 11731871#0 -320948876#7"/>
  <route id="11683958#0_11960711#0.133.qPKW.180" edges="11683958#0 910977765#0 913301010 913305096 -28727103#6 -28727103#3 -265895120#1 -11826990#3 -11826990#2 -11826990#1 11960711#0 11960711#0.74 11960711#0.133"/>
  <route id="11683958#0_11742233#0.qPKW.180" edges="11683958#0 910977765#0 913301010 913305096 11834237#0 11834237#1 625479007#0 625479007#0.42 11742233#0"/>
  <route id="11734068#0_11697077#0.qPKW.180" edges="11734068#0 293149231#0 913301010 913305096 11834237#0 11840126 -294921206#6 -294921206#3 -11750475 11697077#0"/>
  <route id="11833510#6.169_11960711#0.133.qPKW.180" edges="11833510#6.169 294294299#6 294294299#7 294294299#8 294294299#9 714429624#0 714429624#0.162 293149231#0 913301010 913305096 -28727103#6 -28727103#3 -265895120#1 -11826990#3 -11826990#2 -11826990#1 11960711#0 11960711#0.74 11960711#0.133"/>
  <route id="11957732_-1092594708.qPKW.180" edges="11957732 756749111 625866891#2 293149228#0 293149228#1 11853134#0 -1092594708"/>
  <route id="317788870#3_-913304415.qPKW.180" edges="317788870#3 1053139777 625486449#2 294294299#0 294294299#2 294294299#5 294294299#6 294294299#7 294294299#8 294294299#9 714429624#0 714429624#0.162 293149231#0 -910977765#2 -913304415"/>
  <route id="317788870#3_911068789#0.qPKW.180" edges="317788870#3 1053139777 625486449#2 294294299#0 294294299#2 911068789#0"/>
  <route id="-11729090_11820239#0.qPKW.240" edges="-11729090 -335532207#3 335532208#0 24864540#0 24864541 -265895120#1 -11826990#3 -11826990#2 -11826990#1 -28727096#3 -28727096#0 11820239#0"/>
  <route id="-11729090_11820239#0.2.qPKW.240" edges="-11729090 -335532207#3 335532208#0 24864540#0 24864541 28727103#0 28727103#0.110 -294921205#1 -294921206#6 -294921206#3 -11750475 -28727096#0 11820239#0"/>
  <route id="-11729090_E4.26.qPKW.240" edges="-11729090 -335532207#3 335532208#0 24864540#0 24864541 28727103#0 28727103#0.110 -294921205#1 -294921206#6 -294921206#3 -11750475 -28727096#0 625479007#0 625479007#0.42 625479007#1 625479007#2 625479007#4 11737884#0 11737884#1 11737884#3 625866890 293149229#0 293149229#1 293149229#2 293149229#3 293149229#4 625866891#0 625866891#2 293149228#0 293149228#1 402298704#0 302191269 E1 E4 E4.26"/>
  <route id="1041017537_911068789#0.qPKW.240" edges="1041017537 1053139777 625486449#2 294294299#0 294294299#2 911068789#0"/>
  <route id="11833004#0_-62343617#1.qPKW.240" edges="11833004#0 625479007#2 625479007#4 11737884#0 11737884#1 11737884#3 11957936#0 -62343617#1"/>
  <route id="11833510#6.169_-913304415.qPKW.240" edges="11833510#6.169 294294299#6 294294299#7 294294299#8 294294299#9 714429624#0 714429624#0.162 293149231#0 -910977765#2 -913304415"/>
  <route id="867813759#0_11697077#0.qPKW.240" edges="867813759#0 294294299#9 714429624#0 714429624#0.162 293149231#0 913301010 913305096 11834237#0 11834237#1 28727096#0 11697077#0"/>
  <route id="-26321030#5_292851770#0.qPKW.300" edges="-26321030#5 294294299#7 294294299#8 294294299#9 714429624#0 714429624#0.162 293149231#0 913301010 913305096 -28727103#6 -28727103#3 -320455187#3 -24864540#7 -335532208#1 -335532208#1.31 -11837579#6 -11837579#2 -11837579#2.39 292851770#0"/>
  <route id="-26321030#5_11729090.qPKW.300" edges="-26321030#5 294294299#7 294294299#8 294294299#9 714429624#0 714429624#0.162 293149231#0 913301010 913305096 -28727103#6 -28727103#3 -320455187#3 -24864540#7 -335532208#1 -335532208#1.31 335532207#0 11729090"/>
  <route id="-911068789#6.171_-913304415.qPKW.300" edges="-911068789#6.171 294294299#5 294294299#6 294294299#7 294294299#8 294294299#9 714429624#0 714429624#0.162 293149231#0 -910977765#2 -913304415"/>
  <route id="-911068789#6.171_11697077#0.qPKW.300" edges="-911068789#6.171 294294299#5 294294299#6 294294299#7 294294299#8 294294299#9 714429624#0 714429624#0.162 293149231#0 913301010 913305096 11834237#0 11834237#1 28727096#0 11697077#0"/>
  <route id="-966308107#4_E4.26.qPKW.300" edges="-966308107#4 -966308107#4.550 -966308107#4.611 -966308107#4.442 -28727096#3 11750475 294921206#0 294921206#4 294921205#0 28727103#4 11834237#0 11834237#1 625479007#0 625479007#0.42 625479007#1 625479007#2 625479007#4 11737884#0 11737884#1 11737884#3 625866890 293149229#0 293149229#1 293149229#2 293149229#3 293149229#4 625866891#0 625866891#2 293149228#0 293149228#1 402298704#0 302191269 E1 E4 E4.26"/>
  <route id="1038117874#0_11729090.qPKW.300" edges="1038117874#0 294294285 359652179#0 926031003 11956345 926031004#0 293149231#0 913301010 913305096 -28727103#6 -28727103#3 -320455187#3 -24864540#7 -335532208#1 -335532208#1.31 335532207#0 11729090"/>
  <route id="1041017537_-11734068#2.qPKW.300" edges="1041017537 1053139777 625486449#2 294294299#0 294294299#2 294294299#5 294294299#6 294294299#7 294294299#8 294294299#9 714429624#0 714429624#0.162 -11734068#2"/>
  <route id="317788870#3_-11734068#2.qPKW.300" edges="317788870#3 1053139777 625486449#2 294294299#0 294294299#2 294294299#5 294294299#6 294294299#7 294294299#8 294294299#9 714429624#0 714429624#0.162 -11734068#2"/>
  <route id="867813759#0_11729090.qPKW.300" edges="867813759#0 294294299#9 714429624#0 714429624#0.162 293149231#0 913301010 913305096 -28727103#6 -28727103#3 -320455187#3 -24864540#7 -335532208#1 -335532208#1.31 335532207#0 11729090"/>
  <route id="-11729090_-1057194119#5.qPKW.360" edges="-11729090 -335532207#3 -11837579#6 -11837579#2 -11837579#2.39 -1057194119#5"/>
  <route id="-11729090_-11853299#3.qPKW.360" edges="-11729090 -335532207#3 -11837579#6 -11837579#2 -11837579#2.39 -625361998#5 -11853299#3"/>
  <route id="-11729090_346964423#0.qPKW.360" edges="-11729090 -335532207#3 -11837579#6 -11837579#2 -11837579#2.39 -625361998#5 -625361998#3 -625361998#3.164 11955884#0 346964423#0"/>
  <route id="-11729090_11960711#0.133.qPKW.360" edges="-11729090 -335532207#3 335532208#0 24864540#0 24864541 -265895120#1 -11826990#3 -11826990#2 -11826990#1 11960711#0 11960711#0.74 11960711#0.133"/>
  <route id="-11820239#7.82_-11734068#2.qPKW.360" edges="-11820239#7.82 625479007#0 625479007#0.42 625479007#1 625479007#2 625479007#4 926031003 11956345 926031004#0 -11734068#2"/>
  <route id="-911068789#6.171_-1038117874#1.qPKW.360" edges="-911068789#6.171 294294299#5 294294299#6 294294299#7 294294299#8 294294299#9 714429624#0 714429624#0.162 -926031004#1 -11956345 -926031003 -359652179#1 -294294285 -1038117874#1"/>
  <route id="1038117874#0_-913304415.qPKW.360" edges="1038117874#0 294294285 359652179#0 926031003 11956345 926031004#0 293149231#0 -910977765#2 -913304415"/>
  <route id="11683958#0_11697077#0.1.qPKW.360" edges="11683958#0 910977765#0 913301010 913305096 11834237#0 11840126 -294921206#6 -294921206#3 -11750475 11697077#0"/>
  <route id="11833004#0_-11734068#2.qPKW.360" edges="11833004#0 625479007#2 625479007#4 926031003 11956345 926031004#0 -11734068#2"/>
  <route id="11833004#0_11729090.qPKW.360" edges="11833004#0 625479007#2 625479007#4 926031003 11956345 926031004#0 293149231#0 913301010 913305096 -28727103#6 -28727103#3 -320455187#3 -24864540#7 -335532208#1 -335532208#1.31 335532207#0 11729090"/>
  <route id="11833510#6.169_-1038117874#1.qPKW.360" edges="11833510#6.169 294294299#6 294294299#7 294294299#8 294294299#9 714429624#0 714429624#0.162 -926031004#1 -11956345 -926031003 -359652179#1 -294294285 -1038117874#1"/>
  <route id="317788870#3_24850351#0.qPKW.360" edges="317788870#3 1053139777 625486449#2 294294299#0 294294299#2 294294299#5 294294299#6 294294299#7 294294299#8 835563573#0 11834136 24850351#0"/>
  <route id="320948876#7_24850351#0.qPKW.360" edges="320948876#7 294294299#0 294294299#2 294294299#5 294294299#6 294294299#7 294294299#8 835563573#0 11834136 24850351#0"/>
  <route id="-1022429029_E4.26.qPKW.420" edges="-1022429029 -11955884#3 -11955884#3.119 -625851681#2 -28727096#3 -28727096#0 625479007#0 625479007#0.42 625479007#1 625479007#2 625479007#4 11737884#0 11737884#1 11737884#3 625866890 293149229#0 293149229#1 293149229#2 293149229#3 293149229#4 625866891#0 625866891#2 293149228#0 293149228#1 402298704#0 302191269 E1 E4 E4.26"/>
  <route id="-966308107#4_292851770#0.1.qPKW.420" edges="-966308107#4 -966308107#4.550 -966308107#4.611 -966308107#4.442 625851681#0 625361998#0 625361998#3 625361998#4 292851770#0"/>
  <route id="11825574#0_-11694981#11.qPKW.420" edges="11825574#0 625479007#4 11737884#0 11737884#1 11737884#3 625866890 293149229#0 293149229#1 293149229#2 293149229#3 293149229#4 -11694981#11"/>
  <route id="11833004#0_-11694981#11.qPKW.420" edges="11833004#0 625479007#2 625479007#4 11737884#0 11737884#1 11737884#3 625866890 293149229#0 293149229#1 293149229#2 293149229#3 293149229#4 -11694981#11"/>
  <route id="11853299#0_392332379.qPKW.420" edges="11853299#0 -625361998#3 -625361998#3.164 11805275#0 11805275#2 1022429027 392332379"/>
  <route id="317788870#3_11960711#0.133.qPKW.420" edges="317788870#3 1053139777 625486449#2 294294299#0 294294299#2 294294299#5 294294299#6 294294299#7 294294299#8 294294299#9 714429624#0 714429624#0.162 293149231#0 913301010 913305096 -28727103#6 -28727103#3 -265895120#1 -11826990#3 -11826990#2 -11826990#1 11960711#0 11960711#0.74 11960711#0.133"/>
  <route id="911068791#0_11697077#0.qPKW.420" edges="911068791#0 294294299#8 294294299#9 714429624#0 714429624#0.162 293149231#0 913301010 913305096 11834237#0 11834237#1 28727096#0 11697077#0"/>
  <route id="911068791#0_11697077#0.2.qPKW.420" edges="911068791#0 294294299#8 294294299#9 714429624#0 714429624#0.162 293149231#0 913301010 913305096 11834237#0 11840126 -294921206#6 -294921206#3 -11750475 11697077#0"/>
  <route id="911068791#0_-1057194119#5.2.qPKW.420" edges="911068791#0 294294299#8 294294299#9 714429624#0 714429624#0.162 293149231#0 913301010 913305096 11834237#0 11840126 -294921206#6 -294921206#3 -11750475 28727096#1 625851681#0 625361998#0 625361998#3 625361998#4 -1057194119#5"/>
  <route id="-911068789#6.171_-11957732.qPKW.480" edges="-911068789#6.171 -11747683#2 -932572338#1 -932572337 625866891#0 -756749111 -11957732"/>
  <route id="-911068789#6.171_24850351#0.qPKW.480" edges="-911068789#6.171 294294299#5 294294299#6 294294299#7 294294299#8 835563573#0 11834136 24850351#0"/>
  <route id="11694981#7_-1092594708.qPKW.480" edges="11694981#7 625866891#0 625866891#2 293149228#0 293149228#1 11853134#0 -1092594708"/>
  <route id="11694981#7_26321030#0.qPKW.480" edges="11694981#7 932572337 932572338#0 11747683#0 294294299#5 294294299#6 26321030#0"/>
  <route id="11809341#0_-320948876#7.qPKW.480" edges="11809341#0 11737884#1 11737884#3 625866890 293149229#0 293149229#1 293149229#2 293149229#3 293149229#4 625866891#0 625866891#2 11731871#0 -320948876#7"/>
  <route id="11833510#6.169_-11694981#11.qPKW.480" edges="11833510#6.169 294294299#6 -11690285#2 293149229#3 293149229#4 -11694981#11"/>