<?xml version="1.0" encoding="UTF-8"?>

<!-- generated on 2024-03-04 17:33:33 by Eclipse SUMO netedit Version 1.14.1
-->

<routes xmlns:xsi="http://www.w3.org/2001/XMLSchema-instance" xsi:noNamespaceSchemaLocation="http://sumo.dlr.de/xsd/routes_file.xsd">
    <!-- VTypes -->
    <!-- Set tau="< 1" if you want rear-ends to be possible -->
    <!-- Tau is inversely proportional with accident likelihood -->
    <vType id="DEFAULT_VEHTYPE" jmDriveAfterRedTime="10" jmDriveRedSpeed="0.0">
        <param key="collisionMinGapFactor" value="0"/>
    </vType>
    <vType id="EMS_Vehicle" speedFactor="normc(1.50,0.00)" vClass="emergency" impatience="1.00" guiShape="emergency" lcKeepRight="0.0" lcSublane="0.0" lcPushy="1.0" lcImpatience="10" lcOvertakeRight="1.0" jmDriveAfterYellowTime="300" jmDriveAfterRedTime="300" jmDriveRedSpeed="13.89" jmIgnoreKeepClearTime="0" jmIgnoreFoeSpeed="20.0" jmIgnoreFoeProb="1.0">
        <param key="has.bluelight.device" value="true"/>
    </vType>
    <!-- Vehicles, persons and containers (sorted by depart) -->
    <flow id="f_0" begin="0.00" departLane="random" from="-E3" to="E14" via="E1 E11" end="150.00" probability="0.01"/>
    <flow id="f_1" begin="0.00" departLane="random" from="-E3" to="E13" via="E1 E11 E19" end="150.00" probability="0.01"/>
    <flow id="f_10" begin="0.00" departLane="random" from="-E3" to="E9" via="E0" end="150.00" probability="0.01"/>
    <flow id="f_100" begin="0.00" departLane="random" from="-E23" to="E13" end="150.00" probability="0.01"/>
    <flow id="f_101" begin="0.00" departLane="random" from="-E23" to="E14" end="150.00" probability="0.01"/>
    <flow id="f_102" begin="0.00" departLane="random" from="-E23" to="E15" end="150.00" probability="0.01"/>
    <flow id="f_103" begin="0.00" departLane="random" from="-E23" to="E17" end="150.00" probability="0.01"/>
    <flow id="f_104" begin="0.00" departLane="random" from="-E23" to="E16" end="150.00" probability="0.01"/>
    <flow id="f_105" begin="0.00" departLane="random" from="-E23" to="E6" end="150.00" probability="0.01"/>
    <flow id="f_106" begin="0.00" departLane="random" from="-E23" to="E5" end="150.00" probability="0.01"/>
    <flow id="f_107" begin="0.00" departLane="random" from="-E23" to="E3" end="150.00" probability="0.01"/>
    <flow id="f_108" begin="0.00" departLane="random" from="-E23" to="E9" end="150.00" probability="0.01"/>
    <flow id="f_109" begin="0.00" departLane="random" from="-E23" to="E7" end="150.00" probability="0.01"/>
    <flow id="f_11" begin="0.00" departLane="random" from="-E9" to="E7" end="150.00" probability="0.01"/>
    <flow id="f_110" begin="0.00" departLane="random" from="-E23" to="E22" end="150.00" probability="0.01"/>
    <flow id="f_111" begin="0.00" departLane="random" from="-E7" to="E22" end="150.00" probability="0.01"/>
    <flow id="f_112" begin="0.00" departLane="random" from="-E7" to="E23" end="150.00" probability="0.01"/>
    <flow id="f_113" begin="0.00" departLane="random" from="-E7" to="E13" end="150.00" probability="0.01"/>
    <flow id="f_114" begin="0.00" departLane="random" from="-E7" to="E14" end="150.00" probability="0.01"/>
    <flow id="f_115" begin="0.00" departLane="random" from="-E7" to="E15" end="150.00" probability="0.01"/>
    <flow id="f_116" begin="0.00" departLane="random" from="-E7" to="E17" end="150.00" probability="0.01"/>
    <flow id="f_117" begin="0.00" departLane="random" from="-E7" to="E17" via="E2 E10" end="150.00" probability="0.01"/>
    <flow id="f_118" begin="0.00" departLane="random" from="-E7" to="E16" end="150.00" probability="0.01"/>
    <flow id="f_119" begin="0.00" departLane="random" from="-E7" to="E6" end="150.00" probability="0.01"/>
    <flow id="f_12" begin="0.00" departLane="random" from="-E9" to="E22" via="E8" end="150.00" probability="0.01"/>
    <flow id="f_120" begin="0.00" departLane="random" from="-E7" to="E5" end="150.00" probability="0.01"/>
    <flow id="f_121" begin="0.00" departLane="random" from="-E7" to="E3" end="150.00" probability="0.01"/>
    <flow id="f_122" begin="0.00" departLane="random" from="-E7" to="E9" end="150.00" probability="0.01"/>
    <flow id="f_13" begin="0.00" departLane="random" from="-E9" to="E23" via="E8 E12" end="150.00" probability="0.01"/>
    <flow id="f_14" begin="0.00" departLane="random" from="-E9" to="E6" via="-E0 E2" end="150.00" probability="0.01"/>
    <flow id="f_15" begin="0.00" departLane="random" from="-E9" to="E16" via="-E0 E1 -E20" end="150.00" probability="0.01"/>
    <flow id="f_16" begin="0.00" departLane="random" from="-E9" to="E17" via="-E0 E1 E11 -E18" end="150.00" probability="0.01"/>
    <flow id="f_17" begin="0.00" departLane="random" from="-E9" to="E13" via="E8 E12" end="150.00" probability="0.01"/>
    <flow id="f_18" begin="0.00" departLane="random" from="-E9" to="E14" via="E8 E12 -E19" end="150.00" probability="0.01"/>
    <flow id="f_19" begin="0.00" departLane="random" from="-E9" to="E15" end="150.00" probability="0.01"/>
    <flow id="f_2" begin="0.00" departLane="random" from="-E3" to="E15" via="E1 E11 -E18" end="150.00" probability="0.01"/>
    <flow id="f_20" begin="0.00" departLane="random" from="-E9" to="E17" end="150.00" probability="0.01"/>
    <flow id="f_21" begin="0.00" departLane="random" from="-E9" to="E16" end="150.00" probability="0.01"/>
    <flow id="f_22" begin="0.00" departLane="random" from="-E9" to="E6" end="150.00" probability="0.01"/>
    <flow id="f_23" begin="0.00" departLane="random" from="-E5" to="E3" end="150.00" probability="0.01"/>
    <flow id="f_24" begin="0.00" departLane="random" from="-E5" to="E9" end="150.00" probability="0.01"/>
    <flow id="f_25" begin="0.00" departLane="random" from="-E5" to="E7" end="150.00" probability="0.01"/>
    <flow id="f_26" begin="0.00" departLane="random" from="-E5" to="E22" end="150.00" probability="0.01"/>
    <flow id="f_27" begin="0.00" departLane="random" from="-E5" to="E23" end="150.00" probability="0.01"/>
    <flow id="f_28" begin="0.00" departLane="random" from="-E5" to="E13" end="150.00" probability="0.01"/>
    <flow id="f_29" begin="0.00" departLane="random" from="-E5" to="E14" end="150.00" probability="0.01"/>
    <flow id="f_3" begin="0.00" departLane="random" from="-E3" to="E23" via="E1 E21 E12" end="150.00" probability="0.01"/>
    <flow id="f_30" begin="0.00" departLane="random" from="-E5" to="E15" end="150.00" probability="0.01"/>
    <flow id="f_31" begin="0.00" departLane="random" from="-E5" to="E17" end="150.00" probability="0.01"/>
    <flow id="f_32" begin="0.00" departLane="random" from="-E5" to="E16" end="150.00" probability="0.01"/>
    <flow id="f_33" begin="0.00" departLane="random" from="-E5" to="E6" end="150.00" probability="0.01"/>
    <flow id="f_34" begin="0.00" departLane="random" from="-E6" to="E5" end="150.00" probability="0.01"/>
    <flow id="f_35" begin="0.00" departLane="random" from="-E6" to="E3" end="150.00" probability="0.01"/>
    <flow id="f_36" begin="0.00" departLane="random" from="-E6" to="E7" end="150.00" probability="0.01"/>
    <flow id="f_37" begin="0.00" departLane="random" from="-E6" to="E22" end="150.00" probability="0.01"/>
    <flow id="f_38" begin="0.00" departLane="random" from="-E6" to="E23" end="150.00" probability="0.01"/>
    <flow id="f_39" begin="0.00" departLane="random" from="-E6" to="E16" end="150.00" probability="0.01"/>
    <flow id="f_4" begin="0.00" departLane="random" from="-E3" to="E17" via="E1 -E20 E10" end="150.00" probability="0.01"/>
    <flow id="f_40" begin="0.00" departLane="random" from="-E6" to="E17" end="150.00" probability="0.01"/>
    <flow id="f_41" begin="0.00" departLane="random" from="-E6" to="E15" end="150.00" probability="0.01"/>
    <flow id="f_42" begin="0.00" departLane="random" from="-E6" to="E14" end="150.00" probability="0.01"/>
    <flow id="f_43" begin="0.00" departLane="random" from="-E6" to="E13" end="150.00" probability="0.01"/>
    <flow id="f_44" begin="0.00" departLane="random" from="-E16" to="E6" end="150.00" probability="0.01"/>
    <flow id="f_45" begin="0.00" departLane="random" from="-E16" to="E5" end="150.00" probability="0.01"/>
    <flow id="f_46" begin="0.00" departLane="random" from="-E16" to="E3" end="150.00" probability="0.01"/>
    <flow id="f_47" begin="0.00" departLane="random" from="-E16" to="E9" end="150.00" probability="0.01"/>
    <flow id="f_48" begin="0.00" departLane="random" from="-E16" to="E22" end="150.00" probability="0.01"/>
    <flow id="f_49" begin="0.00" departLane="random" from="-E16" to="E23" end="150.00" probability="0.01"/>
    <flow id="f_5" begin="0.00" departLane="random" from="-E3" to="E16" via="E1 -E20" end="150.00" probability="0.01"/>
    <flow id="f_50" begin="0.00" departLane="random" from="-E16" to="E13" end="150.00" probability="0.01"/>
    <flow id="f_51" begin="0.00" departLane="random" from="-E16" to="E14" end="150.00" probability="0.01"/>
    <flow id="f_52" begin="0.00" departLane="random" from="-E16" to="E15" end="150.00" probability="0.01"/>
    <flow id="f_53" begin="0.00" departLane="random" from="-E16" to="E17" end="150.00" probability="0.01"/>
    <flow id="f_54" begin="0.00" departLane="random" from="-E17" to="E16" end="150.00" probability="0.01"/>
    <flow id="f_55" begin="0.00" departLane="random" from="-E17" to="E6" end="150.00" probability="0.01"/>
    <flow id="f_56" begin="0.00" departLane="random" from="-E17" to="E5" end="150.00" probability="0.01"/>
    <flow id="f_57" begin="0.00" departLane="random" from="-E17" to="E3" end="150.00" probability="0.01"/>
    <flow id="f_58" begin="0.00" departLane="random" from="-E17" to="E9" end="150.00" probability="0.01"/>
    <flow id="f_59" begin="0.00" departLane="random" from="-E17" to="E7" end="150.00" probability="0.01"/>
    <flow id="f_6" begin="0.00" departLane="random" from="-E3" to="E22" via="E1 E21" end="150.00" probability="0.01"/>
    <flow id="f_60" begin="0.00" departLane="random" from="-E17" to="E22" end="150.00" probability="0.01"/>
    <flow id="f_61" begin="0.00" departLane="random" from="-E17" to="E23" end="150.00" probability="0.01"/>
    <flow id="f_62" begin="0.00" departLane="random" from="-E17" to="E13" end="150.00" probability="0.01"/>
    <flow id="f_63" begin="0.00" departLane="random" from="-E17" to="E14" end="150.00" probability="0.01"/>
    <flow id="f_64" begin="0.00" departLane="random" from="-E17" to="E15" end="150.00" probability="0.01"/>
    <flow id="f_65" begin="0.00" departLane="random" from="-E16" to="E16" end="150.00" probability="0.01"/>
    <flow id="f_66" begin="0.00" departLane="random" from="-E22" to="E22" end="150.00" probability="0.01"/>
    <flow id="f_67" begin="0.00" departLane="random" from="-E3" to="E3" via="E1 -E1" end="150.00" probability="0.01"/>
    <flow id="f_68" begin="0.00" departLane="random" from="-E15" to="E17" end="150.00" probability="0.01"/>
    <flow id="f_69" begin="0.00" departLane="random" from="-E15" to="E16" end="150.00" probability="0.01"/>
    <flow id="f_7" begin="0.00" departLane="random" from="-E3" to="E7" via="E0" end="150.00" probability="0.01"/>
    <flow id="f_70" begin="0.00" departLane="random" from="-E15" to="E6" end="150.00" probability="0.01"/>
    <flow id="f_71" begin="0.00" departLane="random" from="-E15" to="E5" end="150.00" probability="0.01"/>
    <flow id="f_72" begin="0.00" departLane="random" from="-E15" to="E3" end="150.00" probability="0.01"/>
    <flow id="f_73" begin="0.00" departLane="random" from="-E15" to="E9" end="150.00" probability="0.01"/>
    <flow id="f_74" begin="0.00" departLane="random" from="-E15" to="E7" end="150.00" probability="0.01"/>
    <flow id="f_75" begin="0.00" departLane="random" from="-E15" to="E22" end="150.00" probability="0.01"/>
    <flow id="f_76" begin="0.00" departLane="random" from="-E15" to="E23" end="150.00" probability="0.01"/>
    <flow id="f_77" begin="0.00" departLane="random" from="-E15" to="E13" end="150.00" probability="0.01"/>
    <flow id="f_78" begin="0.00" departLane="random" from="-E15" to="E14" end="150.00" probability="0.01"/>
    <flow id="f_79" begin="0.00" departLane="random" from="-E14" to="E15" end="150.00" probability="0.01"/>
    <flow id="f_8" begin="0.00" departLane="random" from="-E3" to="E6" via="E2" end="150.00" probability="0.01"/>
    <flow id="f_80" begin="0.00" departLane="random" from="-E14" to="E17" end="150.00" probability="0.01"/>
    <flow id="f_81" begin="0.00" departLane="random" from="-E14" to="E16" end="150.00" probability="0.01"/>
    <flow id="f_82" begin="0.00" departLane="random" from="-E14" to="E6" end="150.00" probability="0.01"/>
    <flow id="f_83" begin="0.00" departLane="random" from="-E14" to="E3" end="150.00" probability="0.01"/>
    <flow id="f_84" begin="0.00" departLane="random" from="-E14" to="E9" end="150.00" probability="0.01"/>
    <flow id="f_85" begin="0.00" departLane="random" from="-E14" to="E7" end="150.00" probability="0.01"/>
    <flow id="f_86" begin="0.00" departLane="random" from="-E14" to="E22" end="150.00" probability="0.01"/>
    <flow id="f_87" begin="0.00" departLane="random" from="-E14" to="E23" end="150.00" probability="0.01"/>
    <flow id="f_88" begin="0.00" departLane="random" from="-E14" to="E13" end="150.00" probability="0.01"/>
    <flow id="f_89" begin="0.00" departLane="random" from="-E13" to="E14" end="150.00" probability="0.01"/>
    <flow id="f_9" begin="0.00" departLane="random" from="-E3" to="E5" via="E2" end="150.00" probability="0.01"/>
    <flow id="f_90" begin="0.00" departLane="random" from="-E13" to="E15" end="150.00" probability="0.01"/>
    <flow id="f_91" begin="0.00" departLane="random" from="-E13" to="E16" end="150.00" probability="0.01"/>
    <flow id="f_92" begin="0.00" departLane="random" from="-E13" to="E17" end="150.00" probability="0.01"/>
    <flow id="f_93" begin="0.00" departLane="random" from="-E13" to="E6" end="150.00" probability="0.01"/>
    <flow id="f_94" begin="0.00" departLane="random" from="-E13" to="E5" end="150.00" probability="0.01"/>
    <flow id="f_95" begin="0.00" departLane="random" from="-E13" to="E3" end="150.00" probability="0.01"/>
    <flow id="f_96" begin="0.00" departLane="random" from="-E13" to="E9" end="150.00" probability="0.01"/>
    <flow id="f_97" begin="0.00" departLane="random" from="-E13" to="E7" end="150.00" probability="0.01"/>
    <flow id="f_98" begin="0.00" departLane="random" from="-E13" to="E22" end="150.00" probability="0.01"/>
    <flow id="f_99" begin="0.00" departLane="random" from="-E13" to="E23" end="150.00" probability="0.01"/>
    <trip id="t_0" type="EMS_Vehicle" depart="120.00" departLane="1" from="-E3" to="E14"/>
</routes>
