<?xml version="1.0" encoding="UTF-8"?>

<!-- generated on 2024-03-27 19:04:27 by Eclipse SUMO netedit Version 1.14.1
<configuration xmlns:xsi="http://www.w3.org/2001/XMLSchema-instance" xsi:noNamespaceSchemaLocation="http://sumo.dlr.de/xsd/netconvertConfiguration.xsd">

    <input>
        <sumo-net-file value="C:\Users\connp\My%20Drive\Documents\_Pitt\Data%20Mining\Course%20Project\Code\3x3GridExample\network.net.xml"/>
    </input>

    <output>
        <output-file value="C:\Users\connp\My%20Drive\Documents\_Pitt\Data%20Mining\Course%20Project\Code\3x3GridExample\network.net.xml"/>
    </output>

    <processing>
        <geometry.min-radius.fix.railways value="false"/>
        <geometry.max-grade.fix value="false"/>
        <offset.disable-normalization value="true"/>
        <lefthand value="false"/>
    </processing>

    <junctions>
        <no-turnarounds value="true"/>
        <junctions.corner-detail value="5"/>
        <junctions.limit-turn-speed value="5.5"/>
        <rectangular-lane-cut value="false"/>
    </junctions>

    <pedestrian>
        <walkingareas value="false"/>
    </pedestrian>

    <netedit>
        <additional-files value="C:\Users\connp\My%20Drive\Documents\_Pitt\Data%20Mining\Course%20Project\Code\3x3GridExample\additionals.add.xml"/>
        <route-files value="C:\Users\connp\My%20Drive\Documents\_Pitt\Data%20Mining\Course%20Project\Code\3x3GridExample\demand.rou.xml"/>
    </netedit>

</configuration>
-->

<net version="1.9" junctionCornerDetail="5" limitTurnSpeed="5.50" xmlns:xsi="http://www.w3.org/2001/XMLSchema-instance" xsi:noNamespaceSchemaLocation="http://sumo.dlr.de/xsd/net_file.xsd">

    <location netOffset="0.00,0.00" convBoundary="-200.00,0.00,200.00,400.00" origBoundary="-10000000000.00,-10000000000.00,10000000000.00,10000000000.00" projParameter="!"/>

    <edge id=":J0_0" function="internal">
        <lane id=":J0_0_0" index="0" speed="6.65" length="9.35" width="3.60" shape="-5.40,111.20 -5.76,108.66 -6.85,106.85 -8.66,105.76 -11.20,105.40"/>
    </edge>
    <edge id=":J0_1" function="internal">
        <lane id=":J0_1_0" index="0" speed="13.89" length="22.40" width="3.60" shape="-5.40,111.20 -5.40,88.80"/>
        <lane id=":J0_1_1" index="1" speed="13.89" length="22.40" width="3.60" shape="-1.80,111.20 -1.80,88.80"/>
    </edge>
    <edge id=":J0_3" function="internal">
        <lane id=":J0_3_0" index="0" speed="9.65" length="5.75" width="3.60" shape="-1.80,111.20 -0.99,105.51"/>
    </edge>
    <edge id=":J0_4" function="internal">
        <lane id=":J0_4_0" index="0" speed="3.87" length="1.62" width="3.60" shape="-1.80,111.20 -0.90,109.85"/>
    </edge>
    <edge id=":J0_20" function="internal">
        <lane id=":J0_20_0" index="0" speed="9.65" length="15.22" width="3.60" shape="-0.99,105.51 1.45,101.45 5.51,99.01 11.20,98.20"/>
    </edge>
    <edge id=":J0_21" function="internal">
        <lane id=":J0_21_0" index="0" speed="3.87" length="3.63" width="3.60" shape="-0.90,109.85 0.00,109.40 0.90,109.85 1.80,111.20"/>
    </edge>
    <edge id=":J0_5" function="internal">
        <lane id=":J0_5_0" index="0" speed="6.65" length="9.35" width="3.60" shape="11.20,105.40 8.66,105.76 6.85,106.85 5.76,108.66 5.40,111.20"/>
    </edge>
    <edge id=":J0_6" function="internal">
        <lane id=":J0_6_0" index="0" speed="13.89" length="22.40" width="3.60" shape="11.20,105.40 -11.20,105.40"/>
        <lane id=":J0_6_1" index="1" speed="13.89" length="22.40" width="3.60" shape="11.20,101.80 -11.20,101.80"/>
    </edge>
    <edge id=":J0_8" function="internal">
        <lane id=":J0_8_0" index="0" speed="9.65" length="5.75" width="3.60" shape="11.20,101.80 5.51,100.99"/>
    </edge>
    <edge id=":J0_9" function="internal">
        <lane id=":J0_9_0" index="0" speed="3.87" length="1.62" width="3.60" shape="11.20,101.80 9.85,100.90"/>
    </edge>
    <edge id=":J0_22" function="internal">
        <lane id=":J0_22_0" index="0" speed="9.65" length="15.22" width="3.60" shape="5.51,100.99 1.45,98.55 -0.99,94.49 -1.80,88.80"/>
    </edge>
    <edge id=":J0_23" function="internal">
        <lane id=":J0_23_0" index="0" speed="3.87" length="3.63" width="3.60" shape="9.85,100.90 9.40,100.00 9.85,99.10 11.20,98.20"/>
    </edge>
    <edge id=":J0_10" function="internal">
        <lane id=":J0_10_0" index="0" speed="6.65" length="9.35" width="3.60" shape="5.40,88.80 5.76,91.34 6.85,93.15 8.66,94.24 11.20,94.60"/>
    </edge>
    <edge id=":J0_11" function="internal">
        <lane id=":J0_11_0" index="0" speed="13.89" length="22.40" width="3.60" shape="5.40,88.80 5.40,111.20"/>
        <lane id=":J0_11_1" index="1" speed="13.89" length="22.40" width="3.60" shape="1.80,88.80 1.80,111.20"/>
    </edge>
    <edge id=":J0_13" function="internal">
        <lane id=":J0_13_0" index="0" speed="9.65" length="5.75" width="3.60" shape="1.80,88.80 0.99,94.49"/>
    </edge>
    <edge id=":J0_14" function="internal">
        <lane id=":J0_14_0" index="0" speed="3.87" length="1.62" width="3.60" shape="1.80,88.80 0.90,90.15"/>
    </edge>
    <edge id=":J0_24" function="internal">
        <lane id=":J0_24_0" index="0" speed="9.65" length="15.22" width="3.60" shape="0.99,94.49 -1.45,98.55 -5.51,100.99 -11.20,101.80"/>
    </edge>
    <edge id=":J0_25" function="internal">
        <lane id=":J0_25_0" index="0" speed="3.87" length="3.63" width="3.60" shape="0.90,90.15 0.00,90.60 -0.90,90.15 -1.80,88.80"/>
    </edge>
    <edge id=":J0_15" function="internal">
        <lane id=":J0_15_0" index="0" speed="6.65" length="9.35" width="3.60" shape="-11.20,94.60 -8.66,94.24 -6.85,93.15 -5.76,91.34 -5.40,88.80"/>
    </edge>
    <edge id=":J0_16" function="internal">
        <lane id=":J0_16_0" index="0" speed="13.89" length="22.40" width="3.60" shape="-11.20,94.60 11.20,94.60"/>
        <lane id=":J0_16_1" index="1" speed="13.89" length="22.40" width="3.60" shape="-11.20,98.20 11.20,98.20"/>
    </edge>
    <edge id=":J0_18" function="internal">
        <lane id=":J0_18_0" index="0" speed="9.65" length="5.75" width="3.60" shape="-11.20,98.20 -5.51,99.01"/>
    </edge>
    <edge id=":J0_19" function="internal">
        <lane id=":J0_19_0" index="0" speed="3.87" length="1.62" width="3.60" shape="-11.20,98.20 -9.85,99.10"/>
    </edge>
    <edge id=":J0_26" function="internal">
        <lane id=":J0_26_0" index="0" speed="9.65" length="15.22" width="3.60" shape="-5.51,99.01 -1.45,101.45 0.99,105.51 1.80,111.20"/>
    </edge>
    <edge id=":J0_27" function="internal">
        <lane id=":J0_27_0" index="0" speed="3.87" length="3.63" width="3.60" shape="-9.85,99.10 -9.40,100.00 -9.85,100.90 -11.20,101.80"/>
    </edge>
    <edge id=":J1_0" function="internal">
        <lane id=":J1_0_0" index="0" speed="6.65" length="9.35" width="3.60" shape="94.60,111.20 94.24,108.66 93.15,106.85 91.34,105.76 88.80,105.40"/>
    </edge>
    <edge id=":J1_1" function="internal">
        <lane id=":J1_1_0" index="0" speed="13.89" length="22.40" width="3.60" shape="94.60,111.20 94.60,88.80"/>
        <lane id=":J1_1_1" index="1" speed="13.89" length="22.40" width="3.60" shape="98.20,111.20 98.20,88.80"/>
    </edge>
    <edge id=":J1_3" function="internal">
        <lane id=":J1_3_0" index="0" speed="9.65" length="5.75" width="3.60" shape="98.20,111.20 99.01,105.51"/>
    </edge>
    <edge id=":J1_4" function="internal">
        <lane id=":J1_4_0" index="0" speed="3.87" length="1.62" width="3.60" shape="98.20,111.20 99.10,109.85"/>
    </edge>
    <edge id=":J1_20" function="internal">
        <lane id=":J1_20_0" index="0" speed="9.65" length="15.22" width="3.60" shape="99.01,105.51 101.45,101.45 105.51,99.01 111.20,98.20"/>
    </edge>
    <edge id=":J1_21" function="internal">
        <lane id=":J1_21_0" index="0" speed="3.87" length="3.63" width="3.60" shape="99.10,109.85 100.00,109.40 100.90,109.85 101.80,111.20"/>
    </edge>
    <edge id=":J1_5" function="internal">
        <lane id=":J1_5_0" index="0" speed="6.65" length="9.35" width="3.60" shape="111.20,105.40 108.66,105.76 106.85,106.85 105.76,108.66 105.40,111.20"/>
    </edge>
    <edge id=":J1_6" function="internal">
        <lane id=":J1_6_0" index="0" speed="13.89" length="22.40" width="3.60" shape="111.20,105.40 88.80,105.40"/>
        <lane id=":J1_6_1" index="1" speed="13.89" length="22.40" width="3.60" shape="111.20,101.80 88.80,101.80"/>
    </edge>
    <edge id=":J1_8" function="internal">
        <lane id=":J1_8_0" index="0" speed="9.65" length="5.75" width="3.60" shape="111.20,101.80 105.51,100.99"/>
    </edge>
    <edge id=":J1_9" function="internal">
        <lane id=":J1_9_0" index="0" speed="3.87" length="1.62" width="3.60" shape="111.20,101.80 109.85,100.90"/>
    </edge>
    <edge id=":J1_22" function="internal">
        <lane id=":J1_22_0" index="0" speed="9.65" length="15.22" width="3.60" shape="105.51,100.99 101.45,98.55 99.01,94.49 98.20,88.80"/>
    </edge>
    <edge id=":J1_23" function="internal">
        <lane id=":J1_23_0" index="0" speed="3.87" length="3.63" width="3.60" shape="109.85,100.90 109.40,100.00 109.85,99.10 111.20,98.20"/>
    </edge>
    <edge id=":J1_10" function="internal">
        <lane id=":J1_10_0" index="0" speed="6.65" length="9.35" width="3.60" shape="105.40,88.80 105.76,91.34 106.85,93.15 108.66,94.24 111.20,94.60"/>
    </edge>
    <edge id=":J1_11" function="internal">
        <lane id=":J1_11_0" index="0" speed="13.89" length="22.40" width="3.60" shape="105.40,88.80 105.40,111.20"/>
        <lane id=":J1_11_1" index="1" speed="13.89" length="22.40" width="3.60" shape="101.80,88.80 101.80,111.20"/>
    </edge>
    <edge id=":J1_13" function="internal">
        <lane id=":J1_13_0" index="0" speed="9.65" length="5.75" width="3.60" shape="101.80,88.80 100.99,94.49"/>
    </edge>
    <edge id=":J1_14" function="internal">
        <lane id=":J1_14_0" index="0" speed="3.87" length="1.62" width="3.60" shape="101.80,88.80 100.90,90.15"/>
    </edge>
    <edge id=":J1_24" function="internal">
        <lane id=":J1_24_0" index="0" speed="9.65" length="15.22" width="3.60" shape="100.99,94.49 98.55,98.55 94.49,100.99 88.80,101.80"/>
    </edge>
    <edge id=":J1_25" function="internal">
        <lane id=":J1_25_0" index="0" speed="3.87" length="3.63" width="3.60" shape="100.90,90.15 100.00,90.60 99.10,90.15 98.20,88.80"/>
    </edge>
    <edge id=":J1_15" function="internal">
        <lane id=":J1_15_0" index="0" speed="6.65" length="9.35" width="3.60" shape="88.80,94.60 91.34,94.24 93.15,93.15 94.24,91.34 94.60,88.80"/>
    </edge>
    <edge id=":J1_16" function="internal">
        <lane id=":J1_16_0" index="0" speed="13.89" length="22.40" width="3.60" shape="88.80,94.60 111.20,94.60"/>
        <lane id=":J1_16_1" index="1" speed="13.89" length="22.40" width="3.60" shape="88.80,98.20 111.20,98.20"/>
    </edge>
    <edge id=":J1_18" function="internal">
        <lane id=":J1_18_0" index="0" speed="9.65" length="5.75" width="3.60" shape="88.80,98.20 94.49,99.01"/>
    </edge>
    <edge id=":J1_19" function="internal">
        <lane id=":J1_19_0" index="0" speed="3.87" length="1.62" width="3.60" shape="88.80,98.20 90.15,99.10"/>
    </edge>
    <edge id=":J1_26" function="internal">
        <lane id=":J1_26_0" index="0" speed="9.65" length="15.22" width="3.60" shape="94.49,99.01 98.55,101.45 100.99,105.51 101.80,111.20"/>
    </edge>
    <edge id=":J1_27" function="internal">
        <lane id=":J1_27_0" index="0" speed="3.87" length="3.63" width="3.60" shape="90.15,99.10 90.60,100.00 90.15,100.90 88.80,101.80"/>
    </edge>
    <edge id=":J11_0" function="internal">
        <lane id=":J11_0_0" index="0" speed="6.65" length="9.35" width="3.60" shape="-105.40,311.20 -105.76,308.66 -106.85,306.85 -108.66,305.76 -111.20,305.40"/>
    </edge>
    <edge id=":J11_1" function="internal">
        <lane id=":J11_1_0" index="0" speed="13.89" length="22.40" width="3.60" shape="-105.40,311.20 -105.40,288.80"/>
        <lane id=":J11_1_1" index="1" speed="13.89" length="22.40" width="3.60" shape="-101.80,311.20 -101.80,288.80"/>
    </edge>
    <edge id=":J11_3" function="internal">
        <lane id=":J11_3_0" index="0" speed="9.65" length="5.75" width="3.60" shape="-101.80,311.20 -100.99,305.51"/>
    </edge>
    <edge id=":J11_4" function="internal">
        <lane id=":J11_4_0" index="0" speed="3.87" length="1.62" width="3.60" shape="-101.80,311.20 -100.90,309.85"/>
    </edge>
    <edge id=":J11_20" function="internal">
        <lane id=":J11_20_0" index="0" speed="9.65" length="15.22" width="3.60" shape="-100.99,305.51 -98.55,301.45 -94.49,299.01 -88.80,298.20"/>
    </edge>
    <edge id=":J11_21" function="internal">
        <lane id=":J11_21_0" index="0" speed="3.87" length="3.63" width="3.60" shape="-100.90,309.85 -100.00,309.40 -99.10,309.85 -98.20,311.20"/>
    </edge>
    <edge id=":J11_5" function="internal">
        <lane id=":J11_5_0" index="0" speed="6.65" length="9.35" width="3.60" shape="-88.80,305.40 -91.34,305.76 -93.15,306.85 -94.24,308.66 -94.60,311.20"/>
    </edge>
    <edge id=":J11_6" function="internal">
        <lane id=":J11_6_0" index="0" speed="13.89" length="22.40" width="3.60" shape="-88.80,305.40 -111.20,305.40"/>
        <lane id=":J11_6_1" index="1" speed="13.89" length="22.40" width="3.60" shape="-88.80,301.80 -111.20,301.80"/>
    </edge>
    <edge id=":J11_8" function="internal">
        <lane id=":J11_8_0" index="0" speed="9.65" length="5.75" width="3.60" shape="-88.80,301.80 -94.49,300.99"/>
    </edge>
    <edge id=":J11_9" function="internal">
        <lane id=":J11_9_0" index="0" speed="3.87" length="1.62" width="3.60" shape="-88.80,301.80 -90.15,300.90"/>
    </edge>
    <edge id=":J11_22" function="internal">
        <lane id=":J11_22_0" index="0" speed="9.65" length="15.22" width="3.60" shape="-94.49,300.99 -98.55,298.55 -100.99,294.49 -101.80,288.80"/>
    </edge>
    <edge id=":J11_23" function="internal">
        <lane id=":J11_23_0" index="0" speed="3.87" length="3.63" width="3.60" shape="-90.15,300.90 -90.60,300.00 -90.15,299.10 -88.80,298.20"/>
    </edge>
    <edge id=":J11_10" function="internal">
        <lane id=":J11_10_0" index="0" speed="6.65" length="9.35" width="3.60" shape="-94.60,288.80 -94.24,291.34 -93.15,293.15 -91.34,294.24 -88.80,294.60"/>
    </edge>
    <edge id=":J11_11" function="internal">
        <lane id=":J11_11_0" index="0" speed="13.89" length="22.40" width="3.60" shape="-94.60,288.80 -94.60,311.20"/>
        <lane id=":J11_11_1" index="1" speed="13.89" length="22.40" width="3.60" shape="-98.20,288.80 -98.20,311.20"/>
    </edge>
    <edge id=":J11_13" function="internal">
        <lane id=":J11_13_0" index="0" speed="9.65" length="5.75" width="3.60" shape="-98.20,288.80 -99.01,294.49"/>
    </edge>
    <edge id=":J11_14" function="internal">
        <lane id=":J11_14_0" index="0" speed="3.87" length="1.62" width="3.60" shape="-98.20,288.80 -99.10,290.15"/>
    </edge>
    <edge id=":J11_24" function="internal">
        <lane id=":J11_24_0" index="0" speed="9.65" length="15.22" width="3.60" shape="-99.01,294.49 -101.45,298.55 -105.51,300.99 -111.20,301.80"/>
    </edge>
    <edge id=":J11_25" function="internal">
        <lane id=":J11_25_0" index="0" speed="3.87" length="3.63" width="3.60" shape="-99.10,290.15 -100.00,290.60 -100.90,290.15 -101.80,288.80"/>
    </edge>
    <edge id=":J11_15" function="internal">
        <lane id=":J11_15_0" index="0" speed="6.65" length="9.35" width="3.60" shape="-111.20,294.60 -108.66,294.24 -106.85,293.15 -105.76,291.34 -105.40,288.80"/>
    </edge>
    <edge id=":J11_16" function="internal">
        <lane id=":J11_16_0" index="0" speed="13.89" length="22.40" width="3.60" shape="-111.20,294.60 -88.80,294.60"/>
        <lane id=":J11_16_1" index="1" speed="13.89" length="22.40" width="3.60" shape="-111.20,298.20 -88.80,298.20"/>
    </edge>
    <edge id=":J11_18" function="internal">
        <lane id=":J11_18_0" index="0" speed="9.65" length="5.75" width="3.60" shape="-111.20,298.20 -105.51,299.01"/>
    </edge>
    <edge id=":J11_19" function="internal">
        <lane id=":J11_19_0" index="0" speed="3.87" length="1.62" width="3.60" shape="-111.20,298.20 -109.85,299.10"/>
    </edge>
    <edge id=":J11_26" function="internal">
        <lane id=":J11_26_0" index="0" speed="9.65" length="15.22" width="3.60" shape="-105.51,299.01 -101.45,301.45 -99.01,305.51 -98.20,311.20"/>
    </edge>
    <edge id=":J11_27" function="internal">
        <lane id=":J11_27_0" index="0" speed="3.87" length="3.63" width="3.60" shape="-109.85,299.10 -109.40,300.00 -109.85,300.90 -111.20,301.80"/>
    </edge>
    <edge id=":J12_0" function="internal">
        <lane id=":J12_0_0" index="0" speed="6.65" length="9.35" width="3.60" shape="-5.40,311.20 -5.76,308.66 -6.85,306.85 -8.66,305.76 -11.20,305.40"/>
    </edge>
    <edge id=":J12_1" function="internal">
        <lane id=":J12_1_0" index="0" speed="13.89" length="22.40" width="3.60" shape="-5.40,311.20 -5.40,288.80"/>
        <lane id=":J12_1_1" index="1" speed="13.89" length="22.40" width="3.60" shape="-1.80,311.20 -1.80,288.80"/>
    </edge>
    <edge id=":J12_3" function="internal">
        <lane id=":J12_3_0" index="0" speed="9.65" length="5.75" width="3.60" shape="-1.80,311.20 -0.99,305.51"/>
    </edge>
    <edge id=":J12_4" function="internal">
        <lane id=":J12_4_0" index="0" speed="3.87" length="1.62" width="3.60" shape="-1.80,311.20 -0.90,309.85"/>
    </edge>
    <edge id=":J12_19" function="internal">
        <lane id=":J12_19_0" index="0" speed="9.65" length="15.22" width="3.60" shape="-0.99,305.51 1.45,301.45 5.51,299.01 11.20,298.20"/>
    </edge>
    <edge id=":J12_20" function="internal">
        <lane id=":J12_20_0" index="0" speed="3.87" length="3.63" width="3.60" shape="-0.90,309.85 0.00,309.40 0.90,309.85 1.80,311.20"/>
    </edge>
    <edge id=":J12_5" function="internal">
        <lane id=":J12_5_0" index="0" speed="6.65" length="9.35" width="3.60" shape="11.20,305.40 8.66,305.76 6.85,306.85 5.76,308.66 5.40,311.20"/>
    </edge>
    <edge id=":J12_6" function="internal">
        <lane id=":J12_6_0" index="0" speed="13.89" length="22.40" width="3.60" shape="11.20,305.40 -11.20,305.40"/>
        <lane id=":J12_6_1" index="1" speed="13.89" length="22.40" width="3.60" shape="11.20,301.80 -11.20,301.80"/>
    </edge>
    <edge id=":J12_8" function="internal">
        <lane id=":J12_8_0" index="0" speed="9.65" length="5.75" width="3.60" shape="11.20,301.80 5.51,300.99"/>
    </edge>
    <edge id=":J12_9" function="internal">
        <lane id=":J12_9_0" index="0" speed="3.87" length="1.62" width="3.60" shape="11.20,301.80 9.85,300.90"/>
    </edge>
    <edge id=":J12_21" function="internal">
        <lane id=":J12_21_0" index="0" speed="9.65" length="15.22" width="3.60" shape="5.51,300.99 1.45,298.55 -0.99,294.49 -1.80,288.80"/>
    </edge>
    <edge id=":J12_22" function="internal">
        <lane id=":J12_22_0" index="0" speed="3.87" length="3.63" width="3.60" shape="9.85,300.90 9.40,300.00 9.85,299.10 11.20,298.20"/>
    </edge>
    <edge id=":J12_10" function="internal">
        <lane id=":J12_10_0" index="0" speed="6.65" length="9.35" width="3.60" shape="5.40,288.80 5.76,291.34 6.85,293.15 8.66,294.24 11.20,294.60"/>
    </edge>
    <edge id=":J12_11" function="internal">
        <lane id=":J12_11_0" index="0" speed="13.89" length="22.40" width="3.60" shape="5.40,288.80 5.40,311.20"/>
        <lane id=":J12_11_1" index="1" speed="13.89" length="22.40" width="3.60" shape="1.80,288.80 1.80,311.20"/>
    </edge>
    <edge id=":J12_13" function="internal">
        <lane id=":J12_13_0" index="0" speed="9.65" length="5.75" width="3.60" shape="1.80,288.80 0.99,294.49"/>
    </edge>
    <edge id=":J12_23" function="internal">
        <lane id=":J12_23_0" index="0" speed="9.65" length="15.22" width="3.60" shape="0.99,294.49 -1.45,298.55 -5.51,300.99 -11.20,301.80"/>
    </edge>
    <edge id=":J12_14" function="internal">
        <lane id=":J12_14_0" index="0" speed="6.65" length="9.35" width="3.60" shape="-11.20,294.60 -8.66,294.24 -6.85,293.15 -5.76,291.34 -5.40,288.80"/>
    </edge>
    <edge id=":J12_15" function="internal">
        <lane id=":J12_15_0" index="0" speed="13.89" length="22.40" width="3.60" shape="-11.20,294.60 11.20,294.60"/>
        <lane id=":J12_15_1" index="1" speed="13.89" length="22.40" width="3.60" shape="-11.20,298.20 11.20,298.20"/>
    </edge>
    <edge id=":J12_17" function="internal">
        <lane id=":J12_17_0" index="0" speed="9.65" length="5.75" width="3.60" shape="-11.20,298.20 -5.51,299.01"/>
    </edge>
    <edge id=":J12_18" function="internal">
        <lane id=":J12_18_0" index="0" speed="3.87" length="1.62" width="3.60" shape="-11.20,298.20 -9.85,299.10"/>
    </edge>
    <edge id=":J12_24" function="internal">
        <lane id=":J12_24_0" index="0" speed="9.65" length="15.22" width="3.60" shape="-5.51,299.01 -1.45,301.45 0.99,305.51 1.80,311.20"/>
    </edge>
    <edge id=":J12_25" function="internal">
        <lane id=":J12_25_0" index="0" speed="3.87" length="3.63" width="3.60" shape="-9.85,299.10 -9.40,300.00 -9.85,300.90 -11.20,301.80"/>
    </edge>
    <edge id=":J13_0" function="internal">
        <lane id=":J13_0_0" index="0" speed="6.65" length="9.35" width="3.60" shape="94.60,311.20 94.24,308.66 93.15,306.85 91.34,305.76 88.80,305.40"/>
    </edge>
    <edge id=":J13_1" function="internal">
        <lane id=":J13_1_0" index="0" speed="13.89" length="22.40" width="3.60" shape="94.60,311.20 94.60,288.80"/>
        <lane id=":J13_1_1" index="1" speed="13.89" length="22.40" width="3.60" shape="98.20,311.20 98.20,288.80"/>
    </edge>
    <edge id=":J13_3" function="internal">
        <lane id=":J13_3_0" index="0" speed="9.65" length="5.75" width="3.60" shape="98.20,311.20 99.01,305.51"/>
    </edge>
    <edge id=":J13_4" function="internal">
        <lane id=":J13_4_0" index="0" speed="3.87" length="1.62" width="3.60" shape="98.20,311.20 99.10,309.85"/>
    </edge>
    <edge id=":J13_19" function="internal">
        <lane id=":J13_19_0" index="0" speed="9.65" length="15.22" width="3.60" shape="99.01,305.51 101.45,301.45 105.51,299.01 111.20,298.20"/>
    </edge>
    <edge id=":J13_20" function="internal">
        <lane id=":J13_20_0" index="0" speed="3.87" length="3.63" width="3.60" shape="99.10,309.85 100.00,309.40 100.90,309.85 101.80,311.20"/>
    </edge>
    <edge id=":J13_5" function="internal">
        <lane id=":J13_5_0" index="0" speed="6.65" length="9.35" width="3.60" shape="111.20,305.40 108.66,305.76 106.85,306.85 105.76,308.66 105.40,311.20"/>
    </edge>
    <edge id=":J13_6" function="internal">
        <lane id=":J13_6_0" index="0" speed="13.89" length="22.40" width="3.60" shape="111.20,305.40 88.80,305.40"/>
        <lane id=":J13_6_1" index="1" speed="13.89" length="22.40" width="3.60" shape="111.20,301.80 88.80,301.80"/>
    </edge>
    <edge id=":J13_8" function="internal">
        <lane id=":J13_8_0" index="0" speed="9.65" length="5.75" width="3.60" shape="111.20,301.80 105.51,300.99"/>
    </edge>
    <edge id=":J13_9" function="internal">
        <lane id=":J13_9_0" index="0" speed="3.87" length="1.62" width="3.60" shape="111.20,301.80 109.85,300.90"/>
    </edge>
    <edge id=":J13_21" function="internal">
        <lane id=":J13_21_0" index="0" speed="9.65" length="15.22" width="3.60" shape="105.51,300.99 101.45,298.55 99.01,294.49 98.20,288.80"/>
    </edge>
    <edge id=":J13_22" function="internal">
        <lane id=":J13_22_0" index="0" speed="3.87" length="3.63" width="3.60" shape="109.85,300.90 109.40,300.00 109.85,299.10 111.20,298.20"/>
    </edge>
    <edge id=":J13_10" function="internal">
        <lane id=":J13_10_0" index="0" speed="6.65" length="9.35" width="3.60" shape="105.40,288.80 105.76,291.34 106.85,293.15 108.66,294.24 111.20,294.60"/>
    </edge>
    <edge id=":J13_11" function="internal">
        <lane id=":J13_11_0" index="0" speed="13.89" length="22.40" width="3.60" shape="105.40,288.80 105.40,311.20"/>
        <lane id=":J13_11_1" index="1" speed="13.89" length="22.40" width="3.60" shape="101.80,288.80 101.80,311.20"/>
    </edge>
    <edge id=":J13_13" function="internal">
        <lane id=":J13_13_0" index="0" speed="9.65" length="5.75" width="3.60" shape="101.80,288.80 100.99,294.49"/>
    </edge>
    <edge id=":J13_23" function="internal">
        <lane id=":J13_23_0" index="0" speed="9.65" length="15.22" width="3.60" shape="100.99,294.49 98.55,298.55 94.49,300.99 88.80,301.80"/>
    </edge>
    <edge id=":J13_14" function="internal">
        <lane id=":J13_14_0" index="0" speed="6.65" length="9.35" width="3.60" shape="88.80,294.60 91.34,294.24 93.15,293.15 94.24,291.34 94.60,288.80"/>
    </edge>
    <edge id=":J13_15" function="internal">
        <lane id=":J13_15_0" index="0" speed="13.89" length="22.40" width="3.60" shape="88.80,294.60 111.20,294.60"/>
        <lane id=":J13_15_1" index="1" speed="13.89" length="22.40" width="3.60" shape="88.80,298.20 111.20,298.20"/>
    </edge>
    <edge id=":J13_17" function="internal">
        <lane id=":J13_17_0" index="0" speed="9.65" length="5.75" width="3.60" shape="88.80,298.20 94.49,299.01"/>
    </edge>
    <edge id=":J13_18" function="internal">
        <lane id=":J13_18_0" index="0" speed="3.87" length="1.62" width="3.60" shape="88.80,298.20 90.15,299.10"/>
    </edge>
    <edge id=":J13_24" function="internal">
        <lane id=":J13_24_0" index="0" speed="9.65" length="15.22" width="3.60" shape="94.49,299.01 98.55,301.45 100.99,305.51 101.80,311.20"/>
    </edge>
    <edge id=":J13_25" function="internal">
        <lane id=":J13_25_0" index="0" speed="3.87" length="3.63" width="3.60" shape="90.15,299.10 90.60,300.00 90.15,300.90 88.80,301.80"/>
    </edge>
    <edge id=":J2_0" function="internal">
        <lane id=":J2_0_0" index="0" speed="6.65" length="9.35" width="3.60" shape="-5.40,211.20 -5.76,208.66 -6.85,206.85 -8.66,205.76 -11.20,205.40"/>
    </edge>
    <edge id=":J2_1" function="internal">
        <lane id=":J2_1_0" index="0" speed="13.89" length="22.40" width="3.60" shape="-5.40,211.20 -5.40,188.80"/>
        <lane id=":J2_1_1" index="1" speed="13.89" length="22.40" width="3.60" shape="-1.80,211.20 -1.80,188.80"/>
    </edge>
    <edge id=":J2_3" function="internal">
        <lane id=":J2_3_0" index="0" speed="9.65" length="5.75" width="3.60" shape="-1.80,211.20 -0.99,205.51"/>
    </edge>
    <edge id=":J2_4" function="internal">
        <lane id=":J2_4_0" index="0" speed="3.87" length="1.62" width="3.60" shape="-1.80,211.20 -0.90,209.85"/>
    </edge>
    <edge id=":J2_19" function="internal">
        <lane id=":J2_19_0" index="0" speed="9.65" length="15.22" width="3.60" shape="-0.99,205.51 1.45,201.45 5.51,199.01 11.20,198.20"/>
    </edge>
    <edge id=":J2_20" function="internal">
        <lane id=":J2_20_0" index="0" speed="3.87" length="3.63" width="3.60" shape="-0.90,209.85 0.00,209.40 0.90,209.85 1.80,211.20"/>
    </edge>
    <edge id=":J2_5" function="internal">
        <lane id=":J2_5_0" index="0" speed="6.65" length="9.35" width="3.60" shape="11.20,205.40 8.66,205.76 6.85,206.85 5.76,208.66 5.40,211.20"/>
    </edge>
    <edge id=":J2_6" function="internal">
        <lane id=":J2_6_0" index="0" speed="13.89" length="22.40" width="3.60" shape="11.20,205.40 -11.20,205.40"/>
        <lane id=":J2_6_1" index="1" speed="13.89" length="22.40" width="3.60" shape="11.20,201.80 -11.20,201.80"/>
    </edge>
    <edge id=":J2_8" function="internal">
        <lane id=":J2_8_0" index="0" speed="9.65" length="5.75" width="3.60" shape="11.20,201.80 5.51,200.99"/>
    </edge>
    <edge id=":J2_9" function="internal">
        <lane id=":J2_9_0" index="0" speed="3.87" length="1.62" width="3.60" shape="11.20,201.80 9.85,200.90"/>
    </edge>
    <edge id=":J2_21" function="internal">
        <lane id=":J2_21_0" index="0" speed="9.65" length="15.22" width="3.60" shape="5.51,200.99 1.45,198.55 -0.99,194.49 -1.80,188.80"/>
    </edge>
    <edge id=":J2_22" function="internal">
        <lane id=":J2_22_0" index="0" speed="3.87" length="3.63" width="3.60" shape="9.85,200.90 9.40,200.00 9.85,199.10 11.20,198.20"/>
    </edge>
    <edge id=":J2_10" function="internal">
        <lane id=":J2_10_0" index="0" speed="6.65" length="9.35" width="3.60" shape="5.40,188.80 5.76,191.34 6.85,193.15 8.66,194.24 11.20,194.60"/>
    </edge>
    <edge id=":J2_11" function="internal">
        <lane id=":J2_11_0" index="0" speed="13.89" length="22.40" width="3.60" shape="5.40,188.80 5.40,211.20"/>
        <lane id=":J2_11_1" index="1" speed="13.89" length="22.40" width="3.60" shape="1.80,188.80 1.80,211.20"/>
    </edge>
    <edge id=":J2_13" function="internal">
        <lane id=":J2_13_0" index="0" speed="9.65" length="5.75" width="3.60" shape="1.80,188.80 0.99,194.49"/>
    </edge>
    <edge id=":J2_14" function="internal">
        <lane id=":J2_14_0" index="0" speed="3.87" length="1.62" width="3.60" shape="1.80,188.80 0.90,190.15"/>
    </edge>
    <edge id=":J2_23" function="internal">
        <lane id=":J2_23_0" index="0" speed="9.65" length="15.22" width="3.60" shape="0.99,194.49 -1.45,198.55 -5.51,200.99 -11.20,201.80"/>
    </edge>
    <edge id=":J2_24" function="internal">
        <lane id=":J2_24_0" index="0" speed="3.87" length="3.63" width="3.60" shape="0.90,190.15 0.00,190.60 -0.90,190.15 -1.80,188.80"/>
    </edge>
    <edge id=":J2_15" function="internal">
        <lane id=":J2_15_0" index="0" speed="6.65" length="9.35" width="3.60" shape="-11.20,194.60 -8.66,194.24 -6.85,193.15 -5.76,191.34 -5.40,188.80"/>
    </edge>
    <edge id=":J2_16" function="internal">
        <lane id=":J2_16_0" index="0" speed="13.89" length="22.40" width="3.60" shape="-11.20,194.60 11.20,194.60"/>
        <lane id=":J2_16_1" index="1" speed="13.89" length="22.40" width="3.60" shape="-11.20,198.20 11.20,198.20"/>
    </edge>
    <edge id=":J2_18" function="internal">