<?xml version="1.0" encoding="UTF-8"?>

<!-- generated on 2023-04-04 21:52:50 by Eclipse SUMO netedit Version 1.16.0
-->

<additional xmlns:xsi="http://www.w3.org/2001/XMLSchema-instance" xsi:noNamespaceSchemaLocation="http://sumo.dlr.de/xsd/additional_file.xsd">
    <!-- Detectors -->
    <inductionLoop id="19400" lane="294294299#8_0" pos="40.16" period="3600.00" file="detector.out.xml"/>
    <inductionLoop id="226691I" lane="-11742233#8_0" pos="150.05" period="3600.00" file="detector.out.xml"/>
    <inductionLoop id="226691O" lane="11742233#0_0" pos="101.01" period="3600.00" file="detector.out.xml"/>
    <inductionLoop id="229270" lane="11956950#0_0" pos="93.47" period="3600.00" file="detector.out.xml"/>
    <inductionLoop id="250229" lane="121054524#0_0" pos="109.93" period="3600.00" file="detector.out.xml"/>
    <inductionLoop id="255368I" lane="-24850351#4_0" pos="127.77" period="3600.00" file="detector.out.xml"/>
    <inductionLoop id="255368O" lane="24850351#0_0" pos="70.97" period="3600.00" file="detector.out.xml"/>
    <inductionLoop id="260073I" lane="11957732_0" pos="228.46" period="3600.00" file="detector.out.xml"/>
    <inductionLoop id="260073O" lane="-11957732_0" pos="32.23" period="3600.00" file="detector.out.xml"/>
    <inductionLoop id="269038" lane="835563573#0_0" pos="59.33" period="3600.00" file="detector.out.xml"/>
    <inductionLoop id="270733" lane="11833510#6.169_0" pos="7.12" period="3600.00" file="detector.out.xml"/>
    <inductionLoop id="27414I" lane="-11826990#3_0" pos="47.90" period="3600.00" file="detector.out.xml"/>
    <inductionLoop id="27414O" lane="11826990#3_0" pos="19.79" period="3600.00" file="detector.out.xml"/>
    <inductionLoop id="27415MI" lane="-966308107#4.550_0" pos="6.54" period="3600.00" file="detector.out.xml"/>
    <inductionLoop id="27415MO" lane="11960711#0.74_0" pos="53.18" period="3600.00" file="detector.out.xml"/>
    <inductionLoop id="27431MI" lane="-346964424#2_0" pos="42.64" period="3600.00" file="detector.out.xml"/>
    <inductionLoop id="27431MO" lane="346964423#0_0" pos="28.25" period="3600.00" file="detector.out.xml"/>
    <inductionLoop id="27442I" lane="-11956345_0" pos="43.80" period="3600.00" file="detector.out.xml"/>
    <inductionLoop id="27442O" lane="11956345_0" pos="54.59" period="3600.00" file="detector.out.xml"/>
    <inductionLoop id="27456" lane="11957936#0_0" pos="58.84" period="3600.00" file="detector.out.xml"/>
    <inductionLoop id="27504I" lane="1057194119#0_0" pos="129.16" period="3600.00" file="detector.out.xml"/>
    <inductionLoop id="27504O" lane="-1057194119#5_0" pos="109.44" period="3600.00" file="detector.out.xml"/>
    <inductionLoop id="27626I" lane="-1092594708_1" pos="39.25" period="3600.00" file="detector.out.xml"/>
    <inductionLoop id="27626O" lane="317788870#3_0" pos="78.47" period="3600.00" file="detector.out.xml"/>
    <inductionLoop id="27633MI" lane="320948876#7_0" pos="3.39" period="3600.00" file="detector.out.xml"/>
    <inductionLoop id="27633MO" lane="-320948876#7_0" pos="91.97" period="3600.00" file="detector.out.xml"/>
    <inductionLoop id="27634" lane="11834237#0_1" pos="100.89" period="3600.00" file="detector.out.xml"/>
    <inductionLoop id="276410" lane="911068791#2_0" pos="58.23" period="3600.00" file="detector.out.xml"/>
    <inductionLoop id="27843MI" lane="-911068789#6.171_0" pos="58.54" period="3600.00" file="detector.out.xml"/>
    <inductionLoop id="27843MO" lane="911068789#0_0" pos="41.69" period="3600.00" file="detector.out.xml"/>
    <inductionLoop id="280214I" lane="-294921138#2_0" pos="113.15" period="3600.00" file="detector.out.xml"/>
    <inductionLoop id="280214O" lane="11720583_0" pos="52.27" period="3600.00" file="detector.out.xml"/>
    <inductionLoop id="294101I" lane="-11956778#0_0" pos="6.23" period="3600.00" file="detector.out.xml"/>
    <inductionLoop id="294101O" lane="11956778#0_0" pos="94.28" period="3600.00" file="detector.out.xml"/>
    <inductionLoop id="294185I" lane="294921205#0_0" pos="74.83" period="3600.00" file="detector.out.xml"/>
    <inductionLoop id="294185O" lane="-294921205#1_0" pos="70.38" period="3600.00" file="detector.out.xml"/>
    <inductionLoop id="298667I" lane="11825574#0_0" pos="157.07" period="3600.00" file="detector.out.xml"/>
    <inductionLoop id="298667O" lane="-11825574#6_0" pos="93.27" period="3600.00" file="detector.out.xml"/>
    <inductionLoop id="313950MI" lane="1038117874#0_0" pos="26.40" period="3600.00" file="detector.out.xml"/>
    <inductionLoop id="313950MO" lane="-1038117874#1_1" pos="25.30" period="3600.00" file="detector.out.xml"/>
    <inductionLoop id="320842I" lane="-11690285#2_0" pos="57.05" period="3600.00" file="detector.out.xml"/>
    <inductionLoop id="320842O" lane="-868924670_0" pos="57.75" period="3600.00" file="detector.out.xml"/>
    <inductionLoop id="339189I" lane="11833004#0_0" pos="148.92" period="3600.00" file="detector.out.xml"/>
    <inductionLoop id="339189O" lane="-11833004#2_0" pos="101.88" period="3600.00" file="detector.out.xml"/>
    <inductionLoop id="343115I" lane="11809341#0_0" pos="146.75" period="3600.00" file="detector.out.xml"/>
    <inductionLoop id="343115O" lane="-11809341#3_0" pos="99.26" period="3600.00" file="detector.out.xml"/>
    <inductionLoop id="350740I" lane="-392332379_0" pos="21.79" period="3600.00" file="detector.out.xml"/>
    <inductionLoop id="350740O" lane="392332379_0" pos="59.74" period="3600.00" file="detector.out.xml"/>
    <inductionLoop id="359206O" lane="11840126_0" pos="32.29" period="3600.00" file="detector.out.xml"/>
    <inductionLoop id="361240I" lane="11853299#0_0" pos="162.89" period="3600.00" file="detector.out.xml"/>
    <inductionLoop id="361240O" lane="-11853299#3_0" pos="92.76" period="3600.00" file="detector.out.xml"/>
    <inductionLoop id="373944MI" lane="-1035459376#3_0" pos="41.53" period="3600.00" file="detector.out.xml"/>
    <inductionLoop id="373944MO" lane="1035459376#0_0" pos="126.16" period="3600.00" file="detector.out.xml"/>
    <inductionLoop id="384798" lane="294921219#0_0" pos="154.85" period="3600.00" file="detector.out.xml"/>
    <inductionLoop id="38682" lane="293149229#2_2" pos="61.80" period="3600.00" file="detector.out.xml"/>
    <inductionLoop id="50401MI" lane="-1022429029_0" pos="123.63" period="3600.00" file="detector.out.xml"/>
    <inductionLoop id="50401MO" lane="1022429029_0" pos="39.38" period="3600.00" file="detector.out.xml"/>
    <inductionLoop id="e1_0O" lane="1124471119_0" pos="359.25" period="300.00" file="detector.out.xml"/>
    <inductionLoop id="e1_10I" lane="-11734068#2_0" pos="100.50" period="300.00" file="detector.out.xml"/>
    <inductionLoop id="e1_10O" lane="11734068#0_0" pos="123.40" period="300.00" file="detector.out.xml"/>
    <inductionLoop id="e1_11I" lane="-313330279#2_0" pos="71.56" period="300.00" file="detector.out.xml"/>
    <inductionLoop id="e1_12I" lane="-62343617#1_0" pos="95.14" period="300.00" file="detector.out.xml"/>
    <inductionLoop id="e1_12O" lane="62343617#0_0" pos="19.38" period="300.00" file="detector.out.xml"/>
    <inductionLoop id="e1_13I" lane="-294921129#2_0" pos="54.89" period="300.00" file="detector.out.xml"/>
    <inductionLoop id="e1_14O" lane="867813759#0_0" pos="28.99" period="300.00" file="detector.out.xml"/>
    <inductionLoop id="e1_15O" lane="911068791#0_0" pos="33.07" period="300.00" file="detector.out.xml"/>
    <inductionLoop id="e1_16I" lane="26321030#0_0" pos="78.38" period="300.00" file="detector.out.xml"/>
    <inductionLoop id="e1_16O" lane="-26321030#5_0" pos="31.68" period="300.00" file="detector.out.xml"/>
    <inductionLoop id="e1_18I" lane="11837579#0_0" pos="181.38" period="300.00" file="detector.out.xml"/>
    <inductionLoop id="e1_18O" lane="-11837579#2_0" pos="14.26" period="300.00" file="detector.out.xml"/>
    <inductionLoop id="e1_1I" lane="-E3_0" pos="12.57" period="300.00" file="detector.out.xml"/>
    <inductionLoop id="e1_1O" lane="E3_0" pos="8.96" period="300.00" file="detector.out.xml"/>
    <inductionLoop id="e1_20I" lane="-932572338#1_0" pos="12.79" period="300.00" file="detector.out.xml"/>
    <inductionLoop id="e1_20O" lane="932572338#0_0" pos="9.70" period="300.00" file="detector.out.xml"/>
    <inductionLoop id="e1_22I" lane="-11731871#2_0" pos="56.53" period="300.00" file="detector.out.xml"/>
    <inductionLoop id="e1_22O" lane="11731871#0_1" pos="55.18" period="300.00" file="detector.out.xml"/>
    <inductionLoop id="e1_24I" lane="-11853134#1_0" pos="57.12" period="300.00" file="detector.out.xml"/>
    <inductionLoop id="e1_24O" lane="11853134#0_1" pos="64.96" period="300.00" file="detector.out.xml"/>
    <inductionLoop id="e1_2I" lane="11694981#7_0" pos="70.19" period="300.00" file="detector.out.xml"/>
    <inductionLoop id="e1_2O" lane="-11694981#11_0" pos="70.51" period="300.00" file="detector.out.xml"/>
    <inductionLoop id="e1_3I" lane="11839510#0_0" pos="115.77" period="300.00" file="detector.out.xml"/>
    <inductionLoop id="e1_4I" lane="-11820239#7.82_0" pos="121.30" period="300.00" file="detector.out.xml"/>
    <inductionLoop id="e1_4O" lane="11820239#0_0" pos="72.95" period="300.00" file="detector.out.xml"/>
    <inductionLoop id="e1_5I" lane="E2_0" pos="2.38" period="300.00" file="detector.out.xml"/>
    <inductionLoop id="e1_6I" lane="11697077#0_1" pos="61.41" period="300.00" file="detector.out.xml"/>
    <inductionLoop id="e1_6O" lane="11697077#0_0" pos="61.83" period="300.00" file="detector.out.xml"/>
    <inductionLoop id="e1_7O" lane="294921122#0_0" pos="51.48" period="300.00" file="detector.out.xml"/>
    <inductionLoop id="e1_8I" lane="-913304415_0" pos="62.59" period="300.00" file="detector.out.xml"/>
    <inductionLoop id="e1_8O" lane="11683958#0_0" pos="64.99" period="300.00" file="detector.out.xml"/>
    <inductionLoop id="e1_9I" lane="1022429026_0" pos="138.11" period="300.00" file="detector.out.xml"/>
    <inductionLoop id="e1_9O" lane="-265895121_0" pos="93.96" period="300.00" file="detector.out.xml"/>
</additional>
